data_image0
_chemical_formula_structural       Pb16Ti16O48
_chemical_formula_sum              "Pb16 Ti16 O48"
_cell_length_a       62.416
_cell_length_b       4.128
_cell_length_c       3.901
_cell_angle_alpha    90
_cell_angle_beta     90
_cell_angle_gamma    90

_symmetry_space_group_name_H-M    "P 1"
_symmetry_int_tables_number       1

loop_
  _symmetry_equiv_pos_as_xyz
  'x, y, z'

loop_
  _atom_site_type_symbol
  _atom_site_label
  _atom_site_symmetry_multiplicity
  _atom_site_fract_x
  _atom_site_fract_y
  _atom_site_fract_z
  _atom_site_occupancy
  Pb  Pb1       1.0  0.00000  0.00000  0.00000  1.0000
  Pb  Pb2       1.0  0.06250  0.00000  0.00000  1.0000
  Pb  Pb3       1.0  0.12500  0.00000  0.00000  1.0000
  Pb  Pb4       1.0  0.18750  0.00000  0.00000  1.0000
  Pb  Pb5       1.0  0.25000  0.00000  0.00000  1.0000
  Pb  Pb6       1.0  0.31250  0.00000  0.00000  1.0000
  Pb  Pb7       1.0  0.37500  0.00000  0.00000  1.0000
  Pb  Pb8       1.0  0.43750  0.00000  0.00000  1.0000
  Pb  Pb9       1.0  0.50000  0.00000  0.00000  1.0000
  Pb  Pb10      1.0  0.56250  0.00000  0.00000  1.0000
  Pb  Pb11      1.0  0.62500  0.00000  0.00000  1.0000
  Pb  Pb12      1.0  0.68750  0.00000  0.00000  1.0000
  Pb  Pb13      1.0  0.75000  0.00000  0.00000  1.0000
  Pb  Pb14      1.0  0.81250  0.00000  0.00000  1.0000
  Pb  Pb15      1.0  0.87500  0.00000  0.00000  1.0000
  Pb  Pb16      1.0  0.93750  0.00000  0.00000  1.0000
  Ti  Ti1       1.0  0.03125  0.50000  0.50000  1.0000
  Ti  Ti2       1.0  0.09375  0.50000  0.50000  1.0000
  Ti  Ti3       1.0  0.15625  0.50000  0.50000  1.0000
  Ti  Ti4       1.0  0.21875  0.50000  0.50000  1.0000
  Ti  Ti5       1.0  0.28125  0.50000  0.50000  1.0000
  Ti  Ti6       1.0  0.34375  0.50000  0.50000  1.0000
  Ti  Ti7       1.0  0.40625  0.50000  0.50000  1.0000
  Ti  Ti8       1.0  0.46875  0.50000  0.50000  1.0000
  Ti  Ti9       1.0  0.53125  0.50000  0.50000  1.0000
  Ti  Ti10      1.0  0.59375  0.50000  0.50000  1.0000
  Ti  Ti11      1.0  0.65625  0.50000  0.50000  1.0000
  Ti  Ti12      1.0  0.71875  0.50000  0.50000  1.0000
  Ti  Ti13      1.0  0.78125  0.50000  0.50000  1.0000
  Ti  Ti14      1.0  0.84375  0.50000  0.50000  1.0000
  Ti  Ti15      1.0  0.90625  0.50000  0.50000  1.0000
  Ti  Ti16      1.0  0.96875  0.50000  0.50000  1.0000
  O   O1        1.0  0.03125  0.50000  0.00000  1.0000
  O   O2        1.0  0.09375  0.50000  0.00000  1.0000
  O   O3        1.0  0.15625  0.50000  0.00000  1.0000
  O   O4        1.0  0.21875  0.50000  0.00000  1.0000
  O   O5        1.0  0.28125  0.50000  0.00000  1.0000
  O   O6        1.0  0.34375  0.50000  0.00000  1.0000
  O   O7        1.0  0.40625  0.50000  0.00000  1.0000
  O   O8        1.0  0.46875  0.50000  0.00000  1.0000
  O   O9        1.0  0.53125  0.50000  0.00000  1.0000
  O   O10       1.0  0.59375  0.50000  0.00000  1.0000
  O   O11       1.0  0.65625  0.50000  0.00000  1.0000
  O   O12       1.0  0.71875  0.50000  0.00000  1.0000
  O   O13       1.0  0.78125  0.50000  0.00000  1.0000
  O   O14       1.0  0.84375  0.50000  0.00000  1.0000
  O   O15       1.0  0.90625  0.50000  0.00000  1.0000
  O   O16       1.0  0.96875  0.50000  0.00000  1.0000
  O   O17       1.0  0.00000  0.50000  0.50000  1.0000
  O   O18       1.0  0.06250  0.50000  0.50000  1.0000
  O   O19       1.0  0.12500  0.50000  0.50000  1.0000
  O   O20       1.0  0.18750  0.50000  0.50000  1.0000
  O   O21       1.0  0.25000  0.50000  0.50000  1.0000
  O   O22       1.0  0.31250  0.50000  0.50000  1.0000
  O   O23       1.0  0.37500  0.50000  0.50000  1.0000
  O   O24       1.0  0.43750  0.50000  0.50000  1.0000
  O   O25       1.0  0.50000  0.50000  0.50000  1.0000
  O   O26       1.0  0.56250  0.50000  0.50000  1.0000
  O   O27       1.0  0.62500  0.50000  0.50000  1.0000
  O   O28       1.0  0.68750  0.50000  0.50000  1.0000
  O   O29       1.0  0.75000  0.50000  0.50000  1.0000
  O   O30       1.0  0.81250  0.50000  0.50000  1.0000
  O   O31       1.0  0.87500  0.50000  0.50000  1.0000
  O   O32       1.0  0.93750  0.50000  0.50000  1.0000
  O   O33       1.0  0.03125  0.00000  0.50000  1.0000
  O   O34       1.0  0.09375  0.00000  0.50000  1.0000
  O   O35       1.0  0.15625  0.00000  0.50000  1.0000
  O   O36       1.0  0.21875  0.00000  0.50000  1.0000
  O   O37       1.0  0.28125  0.00000  0.50000  1.0000
  O   O38       1.0  0.34375  0.00000  0.50000  1.0000
  O   O39       1.0  0.40625  0.00000  0.50000  1.0000
  O   O40       1.0  0.46875  0.00000  0.50000  1.0000
  O   O41       1.0  0.53125  0.00000  0.50000  1.0000
  O   O42       1.0  0.59375  0.00000  0.50000  1.0000
  O   O43       1.0  0.65625  0.00000  0.50000  1.0000
  O   O44       1.0  0.71875  0.00000  0.50000  1.0000
  O   O45       1.0  0.78125  0.00000  0.50000  1.0000
  O   O46       1.0  0.84375  0.00000  0.50000  1.0000
  O   O47       1.0  0.90625  0.00000  0.50000  1.0000
  O   O48       1.0  0.96875  0.00000  0.50000  1.0000
