data_image0
_cell_length_a       7.90095
_cell_length_b       7.90095
_cell_length_c       31.4455
_cell_angle_alpha    90
_cell_angle_beta     90
_cell_angle_gamma    90

_symmetry_space_group_name_H-M    "P 1"
_symmetry_int_tables_number       1

loop_
  _symmetry_equiv_pos_as_xyz
  'x, y, z'

loop_
  _atom_site_label
  _atom_site_occupancy
  _atom_site_fract_x
  _atom_site_fract_y
  _atom_site_fract_z
  _atom_site_thermal_displace_type
  _atom_site_B_iso_or_equiv
  _atom_site_type_symbol
  Cs1      1.0000 0.25000  0.25000  0.25000  Biso   1.000  Cs
  Cs2      1.0000 0.75000  0.25000  0.25000  Biso   1.000  Cs
  Cs3      1.0000 0.25000  0.75000  0.25000  Biso   1.000  Cs
  Cs4      1.0000 0.75000  0.75000  0.25000  Biso   1.000  Cs
  Cs5      1.0000 0.25000  0.25000  0.75000  Biso   1.000  Cs
  Cs6      1.0000 0.75000  0.25000  0.75000  Biso   1.000  Cs
  Cs7      1.0000 0.25000  0.75000  0.75000  Biso   1.000  Cs
  Cs8      1.0000 0.75000  0.75000  0.75000  Biso   1.000  Cs
  Ba1      1.0000 0.25000  0.25000  0.07172  Biso   1.000  Ba
  Ba2      1.0000 0.75000  0.25000  0.07172  Biso   1.000  Ba
  Ba3      1.0000 0.25000  0.75000  0.07172  Biso   1.000  Ba
  Ba4      1.0000 0.75000  0.75000  0.07172  Biso   1.000  Ba
  Ba5      1.0000 0.25000  0.25000  0.57172  Biso   1.000  Ba
  Ba6      1.0000 0.75000  0.25000  0.57172  Biso   1.000  Ba
  Ba7      1.0000 0.25000  0.75000  0.57172  Biso   1.000  Ba
  Ba8      1.0000 0.75000  0.75000  0.57172  Biso   1.000  Ba
  Ba9      1.0000 0.25000  0.25000  0.42828  Biso   1.000  Ba
  Ba10     1.0000 0.75000  0.25000  0.42828  Biso   1.000  Ba
  Ba11     1.0000 0.25000  0.75000  0.42828  Biso   1.000  Ba
  Ba12     1.0000 0.75000  0.75000  0.42828  Biso   1.000  Ba
  Ba13     1.0000 0.25000  0.25000  0.92828  Biso   1.000  Ba
  Ba14     1.0000 0.75000  0.25000  0.92828  Biso   1.000  Ba
  Ba15     1.0000 0.25000  0.75000  0.92828  Biso   1.000  Ba
  Ba16     1.0000 0.75000  0.75000  0.92828  Biso   1.000  Ba
  Ta1      1.0000 0.00000  0.00000  0.00000  Biso   1.000  Ta
  Ta2      1.0000 0.50000  0.00000  0.00000  Biso   1.000  Ta
  Ta3      1.0000 0.00000  0.50000  0.00000  Biso   1.000  Ta
  Ta4      1.0000 0.50000  0.50000  0.00000  Biso   1.000  Ta
  Ta5      1.0000 0.00000  0.00000  0.50000  Biso   1.000  Ta
  Ta6      1.0000 0.50000  0.00000  0.50000  Biso   1.000  Ta
  Ta7      1.0000 0.00000  0.50000  0.50000  Biso   1.000  Ta
  Ta8      1.0000 0.50000  0.50000  0.50000  Biso   1.000  Ta
  Ta9      1.0000 0.00000  0.00000  0.14410  Biso   1.000  Ta
  Ta10     1.0000 0.50000  0.00000  0.14410  Biso   1.000  Ta
  Ta11     1.0000 0.00000  0.50000  0.14410  Biso   1.000  Ta
  Ta12     1.0000 0.50000  0.50000  0.14410  Biso   1.000  Ta
  Ta13     1.0000 0.00000  0.00000  0.64410  Biso   1.000  Ta
  Ta14     1.0000 0.50000  0.00000  0.64410  Biso   1.000  Ta
  Ta15     1.0000 0.00000  0.50000  0.64410  Biso   1.000  Ta
  Ta16     1.0000 0.50000  0.50000  0.64410  Biso   1.000  Ta
  Ta17     1.0000 0.00000  0.00000  0.35590  Biso   1.000  Ta
  Ta18     1.0000 0.50000  0.00000  0.35590  Biso   1.000  Ta
  Ta19     1.0000 0.00000  0.50000  0.35590  Biso   1.000  Ta
  Ta20     1.0000 0.50000  0.50000  0.35590  Biso   1.000  Ta
  Ta21     1.0000 0.00000  0.00000  0.85590  Biso   1.000  Ta
  Ta22     1.0000 0.50000  0.00000  0.85590  Biso   1.000  Ta
  Ta23     1.0000 0.00000  0.50000  0.85590  Biso   1.000  Ta
  Ta24     1.0000 0.50000  0.50000  0.85590  Biso   1.000  Ta
  O1       1.0000 0.01580  0.25000  0.00000  Biso   1.000  O
  O2       1.0000 0.48420  0.25000  0.00000  Biso   1.000  O
  O3       1.0000 0.98420  0.75000  0.00000  Biso   1.000  O
  O4       1.0000 0.51580  0.75000  0.00000  Biso   1.000  O
  O5       1.0000 0.01580  0.25000  0.50000  Biso   1.000  O
  O6       1.0000 0.48420  0.25000  0.50000  Biso   1.000  O
  O7       1.0000 0.98420  0.75000  0.50000  Biso   1.000  O
  O8       1.0000 0.51580  0.75000  0.50000  Biso   1.000  O
  O9       1.0000 0.25000  0.98420  0.00000  Biso   1.000  O
  O10      1.0000 0.75000  0.01580  0.00000  Biso   1.000  O
  O11      1.0000 0.25000  0.51580  0.00000  Biso   1.000  O
  O12      1.0000 0.75000  0.48420  0.00000  Biso   1.000  O
  O13      1.0000 0.25000  0.98420  0.50000  Biso   1.000  O
  O14      1.0000 0.75000  0.01580  0.50000  Biso   1.000  O
  O15      1.0000 0.25000  0.51580  0.50000  Biso   1.000  O
  O16      1.0000 0.75000  0.48420  0.50000  Biso   1.000  O
  O17      1.0000 0.00000  0.00000  0.06249  Biso   1.000  O
  O18      1.0000 0.50000  0.00000  0.06249  Biso   1.000  O
  O19      1.0000 0.00000  0.50000  0.06249  Biso   1.000  O
  O20      1.0000 0.50000  0.50000  0.06249  Biso   1.000  O
  O21      1.0000 0.00000  0.00000  0.56249  Biso   1.000  O
  O22      1.0000 0.50000  0.00000  0.56249  Biso   1.000  O
  O23      1.0000 0.00000  0.50000  0.56249  Biso   1.000  O
  O24      1.0000 0.50000  0.50000  0.56249  Biso   1.000  O
  O25      1.0000 0.00000  0.00000  0.43751  Biso   1.000  O
  O26      1.0000 0.50000  0.00000  0.43751  Biso   1.000  O
  O27      1.0000 0.00000  0.50000  0.43751  Biso   1.000  O
  O28      1.0000 0.50000  0.50000  0.43751  Biso   1.000  O
  O29      1.0000 0.00000  0.00000  0.93751  Biso   1.000  O
  O30      1.0000 0.50000  0.00000  0.93751  Biso   1.000  O
  O31      1.0000 0.00000  0.50000  0.93751  Biso   1.000  O
  O32      1.0000 0.50000  0.50000  0.93751  Biso   1.000  O
  O33      1.0000 0.99940  0.25000  0.13180  Biso   1.000  O
  O34      1.0000 0.50060  0.25000  0.13180  Biso   1.000  O
  O35      1.0000 0.00060  0.75000  0.13180  Biso   1.000  O
  O36      1.0000 0.49940  0.75000  0.13180  Biso   1.000  O
  O37      1.0000 0.99940  0.25000  0.63180  Biso   1.000  O
  O38      1.0000 0.50060  0.25000  0.63180  Biso   1.000  O
  O39      1.0000 0.00060  0.75000  0.63180  Biso   1.000  O
  O40      1.0000 0.49940  0.75000  0.63180  Biso   1.000  O
  O41      1.0000 0.25000  0.00060  0.13180  Biso   1.000  O
  O42      1.0000 0.75000  0.99940  0.13180  Biso   1.000  O
  O43      1.0000 0.25000  0.49940  0.13180  Biso   1.000  O
  O44      1.0000 0.75000  0.50060  0.13180  Biso   1.000  O
  O45      1.0000 0.25000  0.00060  0.63180  Biso   1.000  O
  O46      1.0000 0.75000  0.99940  0.63180  Biso   1.000  O
  O47      1.0000 0.25000  0.49940  0.63180  Biso   1.000  O
  O48      1.0000 0.75000  0.50060  0.63180  Biso   1.000  O
  O49      1.0000 0.99940  0.25000  0.36820  Biso   1.000  O
  O50      1.0000 0.50060  0.25000  0.36820  Biso   1.000  O
  O51      1.0000 0.00060  0.75000  0.36820  Biso   1.000  O
  O52      1.0000 0.49940  0.75000  0.36820  Biso   1.000  O
  O53      1.0000 0.99940  0.25000  0.86820  Biso   1.000  O
  O54      1.0000 0.50060  0.25000  0.86820  Biso   1.000  O
  O55      1.0000 0.00060  0.75000  0.86820  Biso   1.000  O
  O56      1.0000 0.49940  0.75000  0.86820  Biso   1.000  O
  O57      1.0000 0.25000  0.00060  0.36820  Biso   1.000  O
  O58      1.0000 0.75000  0.99940  0.36820  Biso   1.000  O
  O59      1.0000 0.25000  0.49940  0.36820  Biso   1.000  O
  O60      1.0000 0.75000  0.50060  0.36820  Biso   1.000  O
  O61      1.0000 0.25000  0.00060  0.86820  Biso   1.000  O
  O62      1.0000 0.75000  0.99940  0.86820  Biso   1.000  O
  O63      1.0000 0.25000  0.49940  0.86820  Biso   1.000  O
  O64      1.0000 0.75000  0.50060  0.86820  Biso   1.000  O
  O65      1.0000 0.00000  0.00000  0.20015  Biso   1.000  O
  O66      1.0000 0.50000  0.00000  0.20015  Biso   1.000  O
  O67      1.0000 0.00000  0.50000  0.20015  Biso   1.000  O
  O68      1.0000 0.50000  0.50000  0.20015  Biso   1.000  O
  O69      1.0000 0.00000  0.00000  0.70015  Biso   1.000  O
  O70      1.0000 0.50000  0.00000  0.70015  Biso   1.000  O
  O71      1.0000 0.00000  0.50000  0.70015  Biso   1.000  O
  O72      1.0000 0.50000  0.50000  0.70015  Biso   1.000  O
  O73      1.0000 0.00000  0.00000  0.29985  Biso   1.000  O
  O74      1.0000 0.50000  0.00000  0.29985  Biso   1.000  O
  O75      1.0000 0.00000  0.50000  0.29985  Biso   1.000  O
  O76      1.0000 0.50000  0.50000  0.29985  Biso   1.000  O
  O77      1.0000 0.00000  0.00000  0.79985  Biso   1.000  O
  O78      1.0000 0.50000  0.00000  0.79985  Biso   1.000  O
  O79      1.0000 0.00000  0.50000  0.79985  Biso   1.000  O
  O80      1.0000 0.50000  0.50000  0.79985  Biso   1.000  O
