data_image0
_cell_length_a       15.6806
_cell_length_b       15.6806
_cell_length_c       5.55277
_cell_angle_alpha    100.198
_cell_angle_beta     100.198
_cell_angle_gamma    20.3969

_symmetry_space_group_name_H-M    "P 1"
_symmetry_int_tables_number       1

loop_
  _symmetry_equiv_pos_as_xyz
  'x, y, z'

loop_
  _atom_site_label
  _atom_site_occupancy
  _atom_site_fract_x
  _atom_site_fract_y
  _atom_site_fract_z
  _atom_site_thermal_displace_type
  _atom_site_B_iso_or_equiv
  _atom_site_type_symbol
  K1       1.0000 0.25505  0.74495  0.75000  Biso   1.000  K
  K2       1.0000 0.74495  0.25505  0.25000  Biso   1.000  K
  Pb1      1.0000 0.42242  0.93084  0.92663  Biso   1.000  Pb
  Pb2      1.0000 0.93084  0.42242  0.42663  Biso   1.000  Pb
  Pb3      1.0000 0.06916  0.57758  0.57337  Biso   1.000  Pb
  Pb4      1.0000 0.57758  0.06916  0.07337  Biso   1.000  Pb
  Nb1      1.0000 0.00000  0.50000  0.00000  Biso   1.000  Nb
  Nb2      1.0000 0.50000  0.00000  0.50000  Biso   1.000  Nb
  Ta1      1.0000 0.85545  0.35739  0.85642  Biso   1.000  Ta
  Ta2      1.0000 0.35739  0.85545  0.35642  Biso   1.000  Ta
  Ta3      1.0000 0.14455  0.64261  0.14358  Biso   1.000  Ta
  Ta4      1.0000 0.64261  0.14455  0.64358  Biso   1.000  Ta
  O1       1.0000 0.26058  0.24558  0.24558  Biso   1.000  O
  O2       1.0000 0.73942  0.75442  0.75442  Biso   1.000  O
  O3       1.0000 0.75442  0.73942  0.25442  Biso   1.000  O
  O4       1.0000 0.24558  0.26058  0.74558  Biso   1.000  O
  O5       1.0000 0.94076  0.42900  0.93488  Biso   1.000  O
  O6       1.0000 0.42900  0.94076  0.43488  Biso   1.000  O
  O7       1.0000 0.05924  0.57100  0.06512  Biso   1.000  O
  O8       1.0000 0.57100  0.05924  0.56512  Biso   1.000  O
  O9       1.0000 0.11693  0.11714  0.11714  Biso   1.000  O
  O10      1.0000 0.62071  0.62050  0.62050  Biso   1.000  O
  O11      1.0000 0.88307  0.88286  0.88286  Biso   1.000  O
  O12      1.0000 0.37929  0.37950  0.37950  Biso   1.000  O
  O13      1.0000 0.88286  0.88307  0.38286  Biso   1.000  O
  O14      1.0000 0.37950  0.37929  0.87950  Biso   1.000  O
  O15      1.0000 0.62050  0.62071  0.12050  Biso   1.000  O
  O16      1.0000 0.11714  0.11693  0.61714  Biso   1.000  O
  O17      1.0000 0.79430  0.30196  0.79813  Biso   1.000  O
  O18      1.0000 0.30196  0.79430  0.29813  Biso   1.000  O
  O19      1.0000 0.20570  0.69804  0.20187  Biso   1.000  O
  O20      1.0000 0.69804  0.20570  0.70187  Biso   1.000  O
