data_image0
_cell_length_a       15.6806
_cell_length_b       15.6806
_cell_length_c       15.6806
_cell_angle_alpha    159.603
_cell_angle_beta     159.603
_cell_angle_gamma    29.0021

_symmetry_space_group_name_H-M    "P 1"
_symmetry_int_tables_number       1

loop_
  _symmetry_equiv_pos_as_xyz
  'x, y, z'

loop_
  _atom_site_label
  _atom_site_occupancy
  _atom_site_fract_x
  _atom_site_fract_y
  _atom_site_fract_z
  _atom_site_thermal_displace_type
  _atom_site_B_iso_or_equiv
  _atom_site_type_symbol
  K1       1.0000 0.75000  0.25000  0.50000  Biso   1.000  K
  K2       1.0000 0.25000  0.75000  0.50000  Biso   1.000  K
  Pb1      1.0000 0.57337  0.07337  0.50000  Biso   1.000  Pb
  Pb2      1.0000 0.07337  0.57337  0.50000  Biso   1.000  Pb
  Pb3      1.0000 0.92663  0.42663  0.50000  Biso   1.000  Pb
  Pb4      1.0000 0.42663  0.92663  0.50000  Biso   1.000  Pb
  Nb1      1.0000 0.00000  0.00000  0.00000  Biso   1.000  Nb
  Nb2      1.0000 0.50000  0.50000  0.00000  Biso   1.000  Nb
  Ta1      1.0000 0.14358  0.14358  0.00000  Biso   1.000  Ta
  Ta2      1.0000 0.64358  0.64358  0.00000  Biso   1.000  Ta
  Ta3      1.0000 0.85642  0.85642  0.00000  Biso   1.000  Ta
  Ta4      1.0000 0.35642  0.35642  0.00000  Biso   1.000  Ta
  O1       1.0000 0.25750  0.75750  0.01500  Biso   1.000  O
  O2       1.0000 0.74250  0.24250  0.98500  Biso   1.000  O
  O3       1.0000 0.75750  0.74250  0.50000  Biso   1.000  O
  O4       1.0000 0.24250  0.25750  0.50000  Biso   1.000  O
  O5       1.0000 0.06512  0.06512  0.00000  Biso   1.000  O
  O6       1.0000 0.56512  0.56512  0.00000  Biso   1.000  O
  O7       1.0000 0.93488  0.93488  0.00000  Biso   1.000  O
  O8       1.0000 0.43488  0.43488  0.00000  Biso   1.000  O
  O9       1.0000 0.38108  0.88108  0.99979  Biso   1.000  O
  O10      1.0000 0.88128  0.38128  0.00021  Biso   1.000  O
  O11      1.0000 0.61892  0.11892  0.00021  Biso   1.000  O
  O12      1.0000 0.11872  0.61872  0.99979  Biso   1.000  O
  O13      1.0000 0.61872  0.61892  0.50000  Biso   1.000  O
  O14      1.0000 0.11892  0.11872  0.50000  Biso   1.000  O
  O15      1.0000 0.88108  0.88128  0.50000  Biso   1.000  O
  O16      1.0000 0.38128  0.38108  0.50000  Biso   1.000  O
  O17      1.0000 0.20187  0.20187  0.00000  Biso   1.000  O
  O18      1.0000 0.70187  0.70187  0.00000  Biso   1.000  O
  O19      1.0000 0.79813  0.79813  0.00000  Biso   1.000  O
  O20      1.0000 0.29813  0.29813  0.00000  Biso   1.000  O
