data_image0
_cell_length_a       15.6806
_cell_length_b       5.55277
_cell_length_c       15.6806
_cell_angle_alpha    79.8016
_cell_angle_beta     20.3969
_cell_angle_gamma    79.8016

_symmetry_space_group_name_H-M    "P 1"
_symmetry_int_tables_number       1

loop_
  _symmetry_equiv_pos_as_xyz
  'x, y, z'

loop_
  _atom_site_label
  _atom_site_occupancy
  _atom_site_fract_x
  _atom_site_fract_y
  _atom_site_fract_z
  _atom_site_thermal_displace_type
  _atom_site_B_iso_or_equiv
  _atom_site_type_symbol
  K1       1.0000 0.66600  0.16600  0.83400  Biso   1.000  K
  K2       1.0000 0.16600  0.66600  0.33400  Biso   1.000  K
  Pb1      1.0000 0.49334  0.34660  0.65340  Biso   1.000  Pb
  Pb2      1.0000 0.99334  0.84660  0.15340  Biso   1.000  Pb
  Pb3      1.0000 0.84660  0.99334  0.00666  Biso   1.000  Pb
  Pb4      1.0000 0.34660  0.49334  0.50666  Biso   1.000  Pb
  Nb1      1.0000 0.91989  0.41989  0.08011  Biso   1.000  Nb
  Nb2      1.0000 0.41989  0.91989  0.58011  Biso   1.000  Nb
  Ta1      1.0000 0.06215  0.27499  0.22501  Biso   1.000  Ta
  Ta2      1.0000 0.56215  0.77499  0.72501  Biso   1.000  Ta
  Ta3      1.0000 0.77499  0.56215  0.93785  Biso   1.000  Ta
  Ta4      1.0000 0.27499  0.06215  0.43785  Biso   1.000  Ta
  O1       1.0000 0.66053  0.17553  0.33947  Biso   1.000  O
  O2       1.0000 0.17553  0.66053  0.82447  Biso   1.000  O
  O3       1.0000 0.15942  0.15942  0.84058  Biso   1.000  O
  O4       1.0000 0.67442  0.67442  0.32558  Biso   1.000  O
  O5       1.0000 0.98302  0.35278  0.14722  Biso   1.000  O
  O6       1.0000 0.48302  0.85278  0.64722  Biso   1.000  O
  O7       1.0000 0.85278  0.48302  0.01698  Biso   1.000  O
  O8       1.0000 0.35278  0.98302  0.51698  Biso   1.000  O
  O9       1.0000 0.79982  0.03725  0.46254  Biso   1.000  O
  O10      1.0000 0.29961  0.53746  0.96275  Biso   1.000  O
  O11      1.0000 0.03725  0.79982  0.70039  Biso   1.000  O
  O12      1.0000 0.53746  0.29961  0.20018  Biso   1.000  O
  O13      1.0000 0.03733  0.29969  0.70031  Biso   1.000  O
  O14      1.0000 0.53712  0.79948  0.20052  Biso   1.000  O
  O15      1.0000 0.29969  0.03733  0.96267  Biso   1.000  O
  O16      1.0000 0.79948  0.53712  0.46288  Biso   1.000  O
  O17      1.0000 0.12070  0.21696  0.28304  Biso   1.000  O
  O18      1.0000 0.62070  0.71696  0.78304  Biso   1.000  O
  O19      1.0000 0.71696  0.62070  0.87930  Biso   1.000  O
  O20      1.0000 0.21696  0.12070  0.37930  Biso   1.000  O
