data_image0
_cell_length_a       15.6806
_cell_length_b       15.6806
_cell_length_c       7.8528
_cell_angle_alpha    90
_cell_angle_beta     90
_cell_angle_gamma    29.0021

_symmetry_space_group_name_H-M    "P 1"
_symmetry_int_tables_number       1

loop_
  _symmetry_equiv_pos_as_xyz
  'x, y, z'

loop_
  _atom_site_label
  _atom_site_occupancy
  _atom_site_fract_x
  _atom_site_fract_y
  _atom_site_fract_z
  _atom_site_thermal_displace_type
  _atom_site_B_iso_or_equiv
  _atom_site_type_symbol
  K1       1.0000 0.48939  0.01061  0.25000  Biso   1.000  K
  K2       1.0000 0.98939  0.51061  0.25000  Biso   1.000  K
  K3       1.0000 0.51061  0.98939  0.75000  Biso   1.000  K
  K4       1.0000 0.01061  0.48939  0.75000  Biso   1.000  K
  Pb1      1.0000 0.32337  0.82337  0.25000  Biso   1.000  Pb
  Pb2      1.0000 0.82337  0.32337  0.25000  Biso   1.000  Pb
  Pb3      1.0000 0.32337  0.82337  0.75000  Biso   1.000  Pb
  Pb4      1.0000 0.82337  0.32337  0.75000  Biso   1.000  Pb
  Pb5      1.0000 0.67663  0.17663  0.25000  Biso   1.000  Pb
  Pb6      1.0000 0.17663  0.67663  0.25000  Biso   1.000  Pb
  Pb7      1.0000 0.67663  0.17663  0.75000  Biso   1.000  Pb
  Pb8      1.0000 0.17663  0.67663  0.75000  Biso   1.000  Pb
  Nb1      1.0000 0.50000  0.50000  0.50000  Biso   1.000  Nb
  Nb2      1.0000 0.00000  0.00000  0.50000  Biso   1.000  Nb
  Nb3      1.0000 0.50000  0.50000  0.00000  Biso   1.000  Nb
  Nb4      1.0000 0.00000  0.00000  0.00000  Biso   1.000  Nb
  Ta1      1.0000 0.64358  0.64358  0.50000  Biso   1.000  Ta
  Ta2      1.0000 0.14358  0.14358  0.50000  Biso   1.000  Ta
  Ta3      1.0000 0.64358  0.64358  0.00000  Biso   1.000  Ta
  Ta4      1.0000 0.14358  0.14358  0.00000  Biso   1.000  Ta
  Ta5      1.0000 0.35642  0.35642  0.50000  Biso   1.000  Ta
  Ta6      1.0000 0.85642  0.85642  0.50000  Biso   1.000  Ta
  Ta7      1.0000 0.35642  0.35642  0.00000  Biso   1.000  Ta
  Ta8      1.0000 0.85642  0.85642  0.00000  Biso   1.000  Ta
  O1       1.0000 0.25000  0.75000  0.49250  Biso   1.000  O
  O2       1.0000 0.75000  0.25000  0.50750  Biso   1.000  O
  O3       1.0000 0.25000  0.75000  0.00750  Biso   1.000  O
  O4       1.0000 0.75000  0.25000  0.99250  Biso   1.000  O
  O5       1.0000 0.49250  0.50750  0.75000  Biso   1.000  O
  O6       1.0000 0.00750  0.99250  0.75000  Biso   1.000  O
  O7       1.0000 0.50750  0.49250  0.25000  Biso   1.000  O
  O8       1.0000 0.99250  0.00750  0.25000  Biso   1.000  O
  O9       1.0000 0.56512  0.56512  0.50000  Biso   1.000  O
  O10      1.0000 0.06512  0.06512  0.50000  Biso   1.000  O
  O11      1.0000 0.56512  0.56512  0.00000  Biso   1.000  O
  O12      1.0000 0.06512  0.06512  0.00000  Biso   1.000  O
  O13      1.0000 0.43488  0.43488  0.50000  Biso   1.000  O
  O14      1.0000 0.93488  0.93488  0.50000  Biso   1.000  O
  O15      1.0000 0.43488  0.43488  0.00000  Biso   1.000  O
  O16      1.0000 0.93488  0.93488  0.00000  Biso   1.000  O
  O17      1.0000 0.38118  0.88118  0.50010  Biso   1.000  O
  O18      1.0000 0.88118  0.38118  0.49990  Biso   1.000  O
  O19      1.0000 0.38118  0.88118  0.99990  Biso   1.000  O
  O20      1.0000 0.88118  0.38118  0.00010  Biso   1.000  O
  O21      1.0000 0.61882  0.11882  0.49990  Biso   1.000  O
  O22      1.0000 0.11882  0.61882  0.50010  Biso   1.000  O
  O23      1.0000 0.61882  0.11882  0.00010  Biso   1.000  O
  O24      1.0000 0.11882  0.61882  0.99990  Biso   1.000  O
  O25      1.0000 0.36892  0.36872  0.75000  Biso   1.000  O
  O26      1.0000 0.86872  0.86892  0.75000  Biso   1.000  O
  O27      1.0000 0.36872  0.36892  0.25000  Biso   1.000  O
  O28      1.0000 0.86892  0.86872  0.25000  Biso   1.000  O
  O29      1.0000 0.63128  0.63108  0.75000  Biso   1.000  O
  O30      1.0000 0.13108  0.13128  0.75000  Biso   1.000  O
  O31      1.0000 0.63108  0.63128  0.25000  Biso   1.000  O
  O32      1.0000 0.13128  0.13108  0.25000  Biso   1.000  O
  O33      1.0000 0.70187  0.70187  0.50000  Biso   1.000  O
  O34      1.0000 0.20187  0.20187  0.50000  Biso   1.000  O
  O35      1.0000 0.70187  0.70187  0.00000  Biso   1.000  O
  O36      1.0000 0.20187  0.20187  0.00000  Biso   1.000  O
  O37      1.0000 0.29813  0.29813  0.50000  Biso   1.000  O
  O38      1.0000 0.79813  0.79813  0.50000  Biso   1.000  O
  O39      1.0000 0.29813  0.29813  0.00000  Biso   1.000  O
  O40      1.0000 0.79813  0.79813  0.00000  Biso   1.000  O
