data_image0
_cell_length_a       15.6806
_cell_length_b       15.6806
_cell_length_c       7.8528
_cell_angle_alpha    90
_cell_angle_beta     90
_cell_angle_gamma    150.998

_symmetry_space_group_name_H-M    "P 1"
_symmetry_int_tables_number       1

loop_
  _symmetry_equiv_pos_as_xyz
  'x, y, z'

loop_
  _atom_site_label
  _atom_site_occupancy
  _atom_site_fract_x
  _atom_site_fract_y
  _atom_site_fract_z
  _atom_site_thermal_displace_type
  _atom_site_B_iso_or_equiv
  _atom_site_type_symbol
  K1       1.0000 0.99666  0.50839  0.24747  Biso   1.000  K
  K2       1.0000 0.49161  0.00334  0.25253  Biso   1.000  K
  K3       1.0000 0.00334  0.49161  0.75253  Biso   1.000  K
  K4       1.0000 0.50839  0.99666  0.74747  Biso   1.000  K
  Pb1      1.0000 0.17407  0.32172  0.25211  Biso   1.000  Pb
  Pb2      1.0000 0.67828  0.82593  0.24789  Biso   1.000  Pb
  Pb3      1.0000 0.17919  0.32502  0.74789  Biso   1.000  Pb
  Pb4      1.0000 0.67498  0.82081  0.75211  Biso   1.000  Pb
  Pb5      1.0000 0.82081  0.67498  0.25211  Biso   1.000  Pb
  Pb6      1.0000 0.32502  0.17919  0.24789  Biso   1.000  Pb
  Pb7      1.0000 0.82593  0.67828  0.74789  Biso   1.000  Pb
  Pb8      1.0000 0.32172  0.17407  0.75211  Biso   1.000  Pb
  Nb1      1.0000 0.00000  0.00000  0.00000  Biso   1.000  Nb
  Nb2      1.0000 0.50000  0.50000  0.00000  Biso   1.000  Nb
  Nb3      1.0000 0.00000  0.00000  0.50000  Biso   1.000  Nb
  Nb4      1.0000 0.50000  0.50000  0.50000  Biso   1.000  Nb
  Ta1      1.0000 0.85690  0.14406  0.99878  Biso   1.000  Ta
  Ta2      1.0000 0.35594  0.64310  0.99975  Biso   1.000  Ta
  Ta3      1.0000 0.85594  0.14310  0.50122  Biso   1.000  Ta
  Ta4      1.0000 0.35690  0.64406  0.50025  Biso   1.000  Ta
  Ta5      1.0000 0.14310  0.85594  0.00122  Biso   1.000  Ta
  Ta6      1.0000 0.64406  0.35690  0.00025  Biso   1.000  Ta
  Ta7      1.0000 0.14406  0.85690  0.49878  Biso   1.000  Ta
  Ta8      1.0000 0.64310  0.35594  0.49975  Biso   1.000  Ta
  O1       1.0000 0.24692  0.25308  0.00000  Biso   1.000  O
  O2       1.0000 0.75308  0.74692  0.00000  Biso   1.000  O
  O3       1.0000 0.25308  0.24692  0.50000  Biso   1.000  O
  O4       1.0000 0.74692  0.75308  0.50000  Biso   1.000  O
  O5       1.0000 0.99369  0.00631  0.75000  Biso   1.000  O
  O6       1.0000 0.49986  0.50014  0.75000  Biso   1.000  O
  O7       1.0000 0.00631  0.99369  0.25000  Biso   1.000  O
  O8       1.0000 0.50014  0.49986  0.25000  Biso   1.000  O
  O9       1.0000 0.93194  0.06218  0.00586  Biso   1.000  O
  O10      1.0000 0.43782  0.56806  0.99998  Biso   1.000  O
  O11      1.0000 0.93782  0.06806  0.49414  Biso   1.000  O
  O12      1.0000 0.43194  0.56218  0.50002  Biso   1.000  O
  O13      1.0000 0.06806  0.93782  0.99414  Biso   1.000  O
  O14      1.0000 0.56218  0.43194  0.00002  Biso   1.000  O
  O15      1.0000 0.06218  0.93194  0.50586  Biso   1.000  O
  O16      1.0000 0.56806  0.43782  0.49998  Biso   1.000  O
  O17      1.0000 0.12061  0.37939  0.99963  Biso   1.000  O
  O18      1.0000 0.61703  0.88297  0.99963  Biso   1.000  O
  O19      1.0000 0.11703  0.38297  0.50037  Biso   1.000  O
  O20      1.0000 0.62061  0.87939  0.50037  Biso   1.000  O
  O21      1.0000 0.87939  0.62061  0.00037  Biso   1.000  O
  O22      1.0000 0.38297  0.11703  0.00037  Biso   1.000  O
  O23      1.0000 0.88297  0.61703  0.49963  Biso   1.000  O
  O24      1.0000 0.37939  0.12061  0.49963  Biso   1.000  O
  O25      1.0000 0.13598  0.86402  0.75000  Biso   1.000  O
  O26      1.0000 0.63240  0.36760  0.75000  Biso   1.000  O
  O27      1.0000 0.12638  0.87362  0.25000  Biso   1.000  O
  O28      1.0000 0.62996  0.37004  0.25000  Biso   1.000  O
  O29      1.0000 0.87362  0.12638  0.75000  Biso   1.000  O
  O30      1.0000 0.37004  0.62996  0.75000  Biso   1.000  O
  O31      1.0000 0.86402  0.13598  0.25000  Biso   1.000  O
  O32      1.0000 0.36760  0.63240  0.25000  Biso   1.000  O
  O33      1.0000 0.80005  0.20379  0.99416  Biso   1.000  O
  O34      1.0000 0.29621  0.69995  0.99800  Biso   1.000  O
  O35      1.0000 0.79621  0.19995  0.50584  Biso   1.000  O
  O36      1.0000 0.30005  0.70379  0.50200  Biso   1.000  O
  O37      1.0000 0.19995  0.79621  0.00584  Biso   1.000  O
  O38      1.0000 0.70379  0.30005  0.00200  Biso   1.000  O
  O39      1.0000 0.20379  0.80005  0.49416  Biso   1.000  O
  O40      1.0000 0.69995  0.29621  0.49800  Biso   1.000  O
