data_image0
_cell_length_a       15.6806
_cell_length_b       15.6806
_cell_length_c       5.55277
_cell_angle_alpha    79.8016
_cell_angle_beta     79.8016
_cell_angle_gamma    20.3969

_symmetry_space_group_name_H-M    "P 1"
_symmetry_int_tables_number       1

loop_
  _symmetry_equiv_pos_as_xyz
  'x, y, z'

loop_
  _atom_site_label
  _atom_site_occupancy
  _atom_site_fract_x
  _atom_site_fract_y
  _atom_site_fract_z
  _atom_site_thermal_displace_type
  _atom_site_B_iso_or_equiv
  _atom_site_type_symbol
  K1       1.0000 0.75505  0.24495  0.24495  Biso   1.000  K
  K2       1.0000 0.24495  0.75505  0.75505  Biso   1.000  K
  Pb1      1.0000 0.92242  0.43084  0.07758  Biso   1.000  Pb
  Pb2      1.0000 0.43084  0.92242  0.56916  Biso   1.000  Pb
  Pb3      1.0000 0.56916  0.07758  0.43084  Biso   1.000  Pb
  Pb4      1.0000 0.07758  0.56916  0.92242  Biso   1.000  Pb
  Nb1      1.0000 0.00000  0.50000  0.50000  Biso   1.000  Nb
  Nb2      1.0000 0.50000  0.00000  0.00000  Biso   1.000  Nb
  Ta1      1.0000 0.85739  0.35545  0.64455  Biso   1.000  Ta
  Ta2      1.0000 0.35545  0.85739  0.14261  Biso   1.000  Ta
  Ta3      1.0000 0.14261  0.64455  0.35545  Biso   1.000  Ta
  Ta4      1.0000 0.64455  0.14261  0.85739  Biso   1.000  Ta
  O1       1.0000 0.25000  0.25000  0.25000  Biso   1.000  O
  O2       1.0000 0.75000  0.75000  0.75000  Biso   1.000  O
  O3       1.0000 0.24384  0.24384  0.75616  Biso   1.000  O
  O4       1.0000 0.75616  0.75616  0.24384  Biso   1.000  O
  O5       1.0000 0.92900  0.44076  0.55924  Biso   1.000  O
  O6       1.0000 0.44076  0.92900  0.07100  Biso   1.000  O
  O7       1.0000 0.07100  0.55924  0.44076  Biso   1.000  O
  O8       1.0000 0.55924  0.07100  0.92900  Biso   1.000  O
  O9       1.0000 0.11882  0.11882  0.38118  Biso   1.000  O
  O10      1.0000 0.61882  0.61882  0.88118  Biso   1.000  O
  O11      1.0000 0.88118  0.88118  0.61882  Biso   1.000  O
  O12      1.0000 0.38118  0.38118  0.11882  Biso   1.000  O
  O13      1.0000 0.38476  0.38476  0.61524  Biso   1.000  O
  O14      1.0000 0.87760  0.87760  0.12240  Biso   1.000  O
  O15      1.0000 0.12240  0.12240  0.87760  Biso   1.000  O
  O16      1.0000 0.61524  0.61524  0.38476  Biso   1.000  O
  O17      1.0000 0.80196  0.29430  0.70570  Biso   1.000  O
  O18      1.0000 0.29430  0.80196  0.19804  Biso   1.000  O
  O19      1.0000 0.19804  0.70570  0.29430  Biso   1.000  O
  O20      1.0000 0.70570  0.19804  0.80196  Biso   1.000  O
