data_image0
_cell_length_a       15.6806
_cell_length_b       15.6806
_cell_length_c       7.8528
_cell_angle_alpha    90
_cell_angle_beta     90
_cell_angle_gamma    150.998

_symmetry_space_group_name_H-M    "P 1"
_symmetry_int_tables_number       1

loop_
  _symmetry_equiv_pos_as_xyz
  'x, y, z'

loop_
  _atom_site_label
  _atom_site_occupancy
  _atom_site_fract_x
  _atom_site_fract_y
  _atom_site_fract_z
  _atom_site_thermal_displace_type
  _atom_site_B_iso_or_equiv
  _atom_site_type_symbol
  K1       1.0000 0.99414  0.00586  0.24495  Biso   1.000  K
  K2       1.0000 0.49414  0.50586  0.25505  Biso   1.000  K
  K3       1.0000 0.00586  0.99414  0.75505  Biso   1.000  K
  K4       1.0000 0.50586  0.49414  0.74495  Biso   1.000  K
  Pb1      1.0000 0.17617  0.82383  0.25421  Biso   1.000  Pb
  Pb2      1.0000 0.67617  0.32383  0.24579  Biso   1.000  Pb
  Pb3      1.0000 0.17709  0.82291  0.74579  Biso   1.000  Pb
  Pb4      1.0000 0.67709  0.32291  0.75421  Biso   1.000  Pb
  Pb5      1.0000 0.32383  0.67617  0.75421  Biso   1.000  Pb
  Pb6      1.0000 0.82383  0.17617  0.74579  Biso   1.000  Pb
  Pb7      1.0000 0.32291  0.67709  0.24579  Biso   1.000  Pb
  Pb8      1.0000 0.82291  0.17709  0.25421  Biso   1.000  Pb
  Nb1      1.0000 0.00000  0.50000  0.50000  Biso   1.000  Nb
  Nb2      1.0000 0.50000  0.00000  0.50000  Biso   1.000  Nb
  Nb3      1.0000 0.00000  0.50000  0.00000  Biso   1.000  Nb
  Nb4      1.0000 0.50000  0.00000  0.00000  Biso   1.000  Nb
  Ta1      1.0000 0.85545  0.64261  0.50073  Biso   1.000  Ta
  Ta2      1.0000 0.35739  0.14455  0.50073  Biso   1.000  Ta
  Ta3      1.0000 0.85739  0.64455  0.99927  Biso   1.000  Ta
  Ta4      1.0000 0.35545  0.14261  0.99927  Biso   1.000  Ta
  Ta5      1.0000 0.14455  0.35739  0.49927  Biso   1.000  Ta
  Ta6      1.0000 0.64261  0.85545  0.49927  Biso   1.000  Ta
  Ta7      1.0000 0.14261  0.35545  0.00073  Biso   1.000  Ta
  Ta8      1.0000 0.64455  0.85739  0.00073  Biso   1.000  Ta
  O1       1.0000 0.00323  0.49677  0.25000  Biso   1.000  O
  O2       1.0000 0.50323  0.99677  0.25000  Biso   1.000  O
  O3       1.0000 0.99677  0.50323  0.75000  Biso   1.000  O
  O4       1.0000 0.49677  0.00323  0.75000  Biso   1.000  O
  O5       1.0000 0.74384  0.25616  0.50000  Biso   1.000  O
  O6       1.0000 0.25616  0.74384  0.50000  Biso   1.000  O
  O7       1.0000 0.75616  0.24384  0.00000  Biso   1.000  O
  O8       1.0000 0.24384  0.75616  0.00000  Biso   1.000  O
  O9       1.0000 0.94076  0.57100  0.49708  Biso   1.000  O
  O10      1.0000 0.42900  0.05924  0.49708  Biso   1.000  O
  O11      1.0000 0.92900  0.55924  0.00292  Biso   1.000  O
  O12      1.0000 0.44076  0.07100  0.00292  Biso   1.000  O
  O13      1.0000 0.05924  0.42900  0.50292  Biso   1.000  O
  O14      1.0000 0.57100  0.94076  0.50292  Biso   1.000  O
  O15      1.0000 0.07100  0.44076  0.99708  Biso   1.000  O
  O16      1.0000 0.55924  0.92900  0.99708  Biso   1.000  O
  O17      1.0000 0.86581  0.63419  0.25000  Biso   1.000  O
  O18      1.0000 0.36581  0.13419  0.25000  Biso   1.000  O
  O19      1.0000 0.87183  0.62817  0.75000  Biso   1.000  O
  O20      1.0000 0.37183  0.12817  0.75000  Biso   1.000  O
  O21      1.0000 0.13419  0.36581  0.75000  Biso   1.000  O
  O22      1.0000 0.63419  0.86581  0.75000  Biso   1.000  O
  O23      1.0000 0.12817  0.37183  0.25000  Biso   1.000  O
  O24      1.0000 0.62817  0.87183  0.25000  Biso   1.000  O
  O25      1.0000 0.88476  0.11524  0.49963  Biso   1.000  O
  O26      1.0000 0.37760  0.62240  0.49963  Biso   1.000  O
  O27      1.0000 0.87760  0.12240  0.00037  Biso   1.000  O
  O28      1.0000 0.38476  0.61524  0.00037  Biso   1.000  O
  O29      1.0000 0.62240  0.37760  0.50037  Biso   1.000  O
  O30      1.0000 0.11524  0.88476  0.50037  Biso   1.000  O
  O31      1.0000 0.61524  0.38476  0.99963  Biso   1.000  O
  O32      1.0000 0.12240  0.87760  0.99963  Biso   1.000  O
  O33      1.0000 0.79430  0.69804  0.50392  Biso   1.000  O
  O34      1.0000 0.30196  0.20570  0.50392  Biso   1.000  O
  O35      1.0000 0.80196  0.70570  0.99608  Biso   1.000  O
  O36      1.0000 0.29430  0.19804  0.99608  Biso   1.000  O
  O37      1.0000 0.20570  0.30196  0.49608  Biso   1.000  O
  O38      1.0000 0.69804  0.79430  0.49608  Biso   1.000  O
  O39      1.0000 0.19804  0.29430  0.00392  Biso   1.000  O
  O40      1.0000 0.70570  0.80196  0.00392  Biso   1.000  O
