data_image0
_cell_length_a       15.6806
_cell_length_b       15.6806
_cell_length_c       7.8528
_cell_angle_alpha    90
_cell_angle_beta     90
_cell_angle_gamma    150.998

_symmetry_space_group_name_H-M    "P 1"
_symmetry_int_tables_number       1

loop_
  _symmetry_equiv_pos_as_xyz
  'x, y, z'

loop_
  _atom_site_label
  _atom_site_occupancy
  _atom_site_fract_x
  _atom_site_fract_y
  _atom_site_fract_z
  _atom_site_thermal_displace_type
  _atom_site_B_iso_or_equiv
  _atom_site_type_symbol
  K1       1.0000 0.01313  0.01313  0.24747  Biso   1.000  K
  K2       1.0000 0.50808  0.50808  0.25253  Biso   1.000  K
  K3       1.0000 0.98687  0.98687  0.75253  Biso   1.000  K
  K4       1.0000 0.49192  0.49192  0.74747  Biso   1.000  K
  Pb1      1.0000 0.17452  0.82126  0.25211  Biso   1.000  Pb
  Pb2      1.0000 0.67874  0.32548  0.24789  Biso   1.000  Pb
  Pb3      1.0000 0.17874  0.82548  0.74789  Biso   1.000  Pb
  Pb4      1.0000 0.67452  0.32126  0.75211  Biso   1.000  Pb
  Pb5      1.0000 0.82126  0.17452  0.25211  Biso   1.000  Pb
  Pb6      1.0000 0.32548  0.67874  0.24789  Biso   1.000  Pb
  Pb7      1.0000 0.82548  0.17874  0.74789  Biso   1.000  Pb
  Pb8      1.0000 0.32126  0.67452  0.75211  Biso   1.000  Pb
  Nb1      1.0000 0.00000  0.50000  0.00000  Biso   1.000  Nb
  Nb2      1.0000 0.50000  0.00000  0.00000  Biso   1.000  Nb
  Nb3      1.0000 1.00000  0.50000  0.50000  Biso   1.000  Nb
  Nb4      1.0000 0.50000  0.00000  0.50000  Biso   1.000  Nb
  Ta1      1.0000 0.85690  0.64406  0.99952  Biso   1.000  Ta
  Ta2      1.0000 0.35594  0.14310  0.00048  Biso   1.000  Ta
  Ta3      1.0000 0.85594  0.64310  0.50048  Biso   1.000  Ta
  Ta4      1.0000 0.35690  0.14406  0.49952  Biso   1.000  Ta
  Ta5      1.0000 0.14310  0.35594  0.00048  Biso   1.000  Ta
  Ta6      1.0000 0.64406  0.85690  0.99952  Biso   1.000  Ta
  Ta7      1.0000 0.14406  0.35690  0.49952  Biso   1.000  Ta
  Ta8      1.0000 0.64310  0.85594  0.50048  Biso   1.000  Ta
  O1       1.0000 0.24692  0.75308  0.00000  Biso   1.000  O
  O2       1.0000 0.75308  0.24692  0.00000  Biso   1.000  O
  O3       1.0000 0.25308  0.74692  0.50000  Biso   1.000  O
  O4       1.0000 0.74692  0.25308  0.50000  Biso   1.000  O
  O5       1.0000 0.99692  0.50308  0.75000  Biso   1.000  O
  O6       1.0000 0.50308  0.99692  0.75000  Biso   1.000  O
  O7       1.0000 0.00308  0.49692  0.25000  Biso   1.000  O
  O8       1.0000 0.49692  0.00308  0.25000  Biso   1.000  O
  O9       1.0000 0.93194  0.56218  0.00294  Biso   1.000  O
  O10      1.0000 0.43782  0.06806  0.99706  Biso   1.000  O
  O11      1.0000 0.93782  0.56806  0.49706  Biso   1.000  O
  O12      1.0000 0.43194  0.06218  0.50294  Biso   1.000  O
  O13      1.0000 0.06806  0.43782  0.99706  Biso   1.000  O
  O14      1.0000 0.56218  0.93194  0.00294  Biso   1.000  O
  O15      1.0000 0.06218  0.43194  0.50294  Biso   1.000  O
  O16      1.0000 0.56806  0.93782  0.49706  Biso   1.000  O
  O17      1.0000 0.12061  0.87939  0.00000  Biso   1.000  O
  O18      1.0000 0.61703  0.38297  0.00000  Biso   1.000  O
  O19      1.0000 0.11703  0.88297  0.50000  Biso   1.000  O
  O20      1.0000 0.62061  0.37939  0.50000  Biso   1.000  O
  O21      1.0000 0.87939  0.12061  0.00000  Biso   1.000  O
  O22      1.0000 0.38297  0.61703  0.00000  Biso   1.000  O
  O23      1.0000 0.88297  0.11703  0.50000  Biso   1.000  O
  O24      1.0000 0.37939  0.62061  0.50000  Biso   1.000  O
  O25      1.0000 0.13297  0.36703  0.75000  Biso   1.000  O
  O26      1.0000 0.62939  0.87061  0.75000  Biso   1.000  O
  O27      1.0000 0.12939  0.37061  0.25000  Biso   1.000  O
  O28      1.0000 0.63297  0.86703  0.25000  Biso   1.000  O
  O29      1.0000 0.87061  0.62939  0.75000  Biso   1.000  O
  O30      1.0000 0.36703  0.13297  0.75000  Biso   1.000  O
  O31      1.0000 0.86703  0.63297  0.25000  Biso   1.000  O
  O32      1.0000 0.37061  0.12939  0.25000  Biso   1.000  O
  O33      1.0000 0.80005  0.70379  0.99808  Biso   1.000  O
  O34      1.0000 0.29621  0.19995  0.00192  Biso   1.000  O
  O35      1.0000 0.79621  0.69995  0.50192  Biso   1.000  O
  O36      1.0000 0.30005  0.20379  0.49808  Biso   1.000  O
  O37      1.0000 0.19995  0.29621  0.00192  Biso   1.000  O
  O38      1.0000 0.70379  0.80005  0.99808  Biso   1.000  O
  O39      1.0000 0.20379  0.30005  0.49808  Biso   1.000  O
  O40      1.0000 0.69995  0.79621  0.50192  Biso   1.000  O
