data_image0
_cell_length_a       30.3622
_cell_length_b       7.8528
_cell_length_c       7.8528
_cell_angle_alpha    90
_cell_angle_beta     90
_cell_angle_gamma    90

_symmetry_space_group_name_H-M    "P 1"
_symmetry_int_tables_number       1

loop_
  _symmetry_equiv_pos_as_xyz
  'x, y, z'

loop_
  _atom_site_label
  _atom_site_occupancy
  _atom_site_fract_x
  _atom_site_fract_y
  _atom_site_fract_z
  _atom_site_thermal_displace_type
  _atom_site_B_iso_or_equiv
  _atom_site_type_symbol
  K1       1.0000 0.26172  0.25000  0.25505  Biso   1.000  K
  K2       1.0000 0.76172  0.25000  0.24495  Biso   1.000  K
  K3       1.0000 0.25000  0.25000  0.74495  Biso   1.000  K
  K4       1.0000 0.75000  0.25000  0.75505  Biso   1.000  K
  K5       1.0000 0.25000  0.75000  0.24495  Biso   1.000  K
  K6       1.0000 0.75000  0.75000  0.25505  Biso   1.000  K
  K7       1.0000 0.23828  0.75000  0.75505  Biso   1.000  K
  K8       1.0000 0.73828  0.75000  0.74495  Biso   1.000  K
  Pb1      1.0000 0.07429  0.25000  0.24579  Biso   1.000  Pb
  Pb2      1.0000 0.57429  0.25000  0.25421  Biso   1.000  Pb
  Pb3      1.0000 0.07337  0.25000  0.75421  Biso   1.000  Pb
  Pb4      1.0000 0.57337  0.25000  0.74579  Biso   1.000  Pb
  Pb5      1.0000 0.07337  0.75000  0.25421  Biso   1.000  Pb
  Pb6      1.0000 0.57337  0.75000  0.24579  Biso   1.000  Pb
  Pb7      1.0000 0.07245  0.75000  0.74579  Biso   1.000  Pb
  Pb8      1.0000 0.57245  0.75000  0.75421  Biso   1.000  Pb
  Pb9      1.0000 0.92663  0.25000  0.74579  Biso   1.000  Pb
  Pb10     1.0000 0.42663  0.25000  0.75421  Biso   1.000  Pb
  Pb11     1.0000 0.92755  0.25000  0.25421  Biso   1.000  Pb
  Pb12     1.0000 0.42755  0.25000  0.24579  Biso   1.000  Pb
  Pb13     1.0000 0.92571  0.75000  0.75421  Biso   1.000  Pb
  Pb14     1.0000 0.42571  0.75000  0.74579  Biso   1.000  Pb
  Pb15     1.0000 0.92663  0.75000  0.24579  Biso   1.000  Pb
  Pb16     1.0000 0.42663  0.75000  0.25421  Biso   1.000  Pb
  Nb1      1.0000 0.00000  0.00000  0.00000  Biso   1.000  Nb
  Nb2      1.0000 0.50000  0.00000  0.00000  Biso   1.000  Nb
  Nb3      1.0000 0.00000  0.00000  0.50000  Biso   1.000  Nb
  Nb4      1.0000 0.50000  0.00000  0.50000  Biso   1.000  Nb
  Nb5      1.0000 0.00000  0.50000  0.00000  Biso   1.000  Nb
  Nb6      1.0000 0.50000  0.50000  0.00000  Biso   1.000  Nb
  Nb7      1.0000 0.00000  0.50000  0.50000  Biso   1.000  Nb
  Nb8      1.0000 0.50000  0.50000  0.50000  Biso   1.000  Nb
  Ta1      1.0000 0.14358  0.99830  0.99927  Biso   1.000  Ta
  Ta2      1.0000 0.64358  0.00024  0.99927  Biso   1.000  Ta
  Ta3      1.0000 0.14358  0.00024  0.50073  Biso   1.000  Ta
  Ta4      1.0000 0.64358  0.99830  0.50073  Biso   1.000  Ta
  Ta5      1.0000 0.14358  0.50170  0.99927  Biso   1.000  Ta
  Ta6      1.0000 0.64358  0.49976  0.99927  Biso   1.000  Ta
  Ta7      1.0000 0.14358  0.49976  0.50073  Biso   1.000  Ta
  Ta8      1.0000 0.64358  0.50170  0.50073  Biso   1.000  Ta
  Ta9      1.0000 0.85642  0.00170  0.00073  Biso   1.000  Ta
  Ta10     1.0000 0.35642  0.99976  0.00073  Biso   1.000  Ta
  Ta11     1.0000 0.85642  0.99976  0.49927  Biso   1.000  Ta
  Ta12     1.0000 0.35642  0.00170  0.49927  Biso   1.000  Ta
  Ta13     1.0000 0.85642  0.49830  0.00073  Biso   1.000  Ta
  Ta14     1.0000 0.35642  0.50024  0.00073  Biso   1.000  Ta
  Ta15     1.0000 0.85642  0.50024  0.49927  Biso   1.000  Ta
  Ta16     1.0000 0.35642  0.49830  0.49927  Biso   1.000  Ta
  O1       1.0000 0.99677  1.00000  0.25000  Biso   1.000  O
  O2       1.0000 0.49677  1.00000  0.25000  Biso   1.000  O
  O3       1.0000 0.00323  0.00000  0.75000  Biso   1.000  O
  O4       1.0000 0.50323  0.00000  0.75000  Biso   1.000  O
  O5       1.0000 0.99677  0.50000  0.25000  Biso   1.000  O
  O6       1.0000 0.49677  0.50000  0.25000  Biso   1.000  O
  O7       1.0000 0.00323  0.50000  0.75000  Biso   1.000  O
  O8       1.0000 0.50323  0.50000  0.75000  Biso   1.000  O
  O9       1.0000 0.00939  0.75000  0.00000  Biso   1.000  O
  O10      1.0000 0.49706  0.75000  0.00000  Biso   1.000  O
  O11      1.0000 0.99706  0.75000  0.50000  Biso   1.000  O
  O12      1.0000 0.50939  0.75000  0.50000  Biso   1.000  O
  O13      1.0000 0.99061  0.25000  0.00000  Biso   1.000  O
  O14      1.0000 0.50294  0.25000  0.00000  Biso   1.000  O
  O15      1.0000 0.00294  0.25000  0.50000  Biso   1.000  O
  O16      1.0000 0.49061  0.25000  0.50000  Biso   1.000  O
  O17      1.0000 0.06512  0.00879  0.00292  Biso   1.000  O
  O18      1.0000 0.56512  0.99704  0.00292  Biso   1.000  O
  O19      1.0000 0.06512  0.99704  0.49708  Biso   1.000  O
  O20      1.0000 0.56512  0.00879  0.49708  Biso   1.000  O
  O21      1.0000 0.06512  0.49121  0.00292  Biso   1.000  O
  O22      1.0000 0.56512  0.50296  0.00292  Biso   1.000  O
  O23      1.0000 0.06512  0.50296  0.49708  Biso   1.000  O
  O24      1.0000 0.56512  0.49121  0.49708  Biso   1.000  O
  O25      1.0000 0.93488  0.99121  0.99708  Biso   1.000  O
  O26      1.0000 0.43488  0.00296  0.99708  Biso   1.000  O
  O27      1.0000 0.93488  0.00296  0.50292  Biso   1.000  O
  O28      1.0000 0.43488  0.99121  0.50292  Biso   1.000  O
  O29      1.0000 0.93488  0.50879  0.99708  Biso   1.000  O
  O30      1.0000 0.43488  0.49704  0.99708  Biso   1.000  O
  O31      1.0000 0.93488  0.49704  0.50292  Biso   1.000  O
  O32      1.0000 0.43488  0.50879  0.50292  Biso   1.000  O
  O33      1.0000 0.13419  0.99963  0.25000  Biso   1.000  O
  O34      1.0000 0.63419  0.99963  0.25000  Biso   1.000  O
  O35      1.0000 0.12817  0.99963  0.75000  Biso   1.000  O
  O36      1.0000 0.62817  0.99963  0.75000  Biso   1.000  O
  O37      1.0000 0.13419  0.50037  0.25000  Biso   1.000  O
  O38      1.0000 0.63419  0.50037  0.25000  Biso   1.000  O
  O39      1.0000 0.12817  0.50037  0.75000  Biso   1.000  O
  O40      1.0000 0.62817  0.50037  0.75000  Biso   1.000  O
  O41      1.0000 0.86581  0.00037  0.75000  Biso   1.000  O
  O42      1.0000 0.36581  0.00037  0.75000  Biso   1.000  O
  O43      1.0000 0.87183  0.00037  0.25000  Biso   1.000  O
  O44      1.0000 0.37183  0.00037  0.25000  Biso   1.000  O
  O45      1.0000 0.86581  0.49963  0.75000  Biso   1.000  O
  O46      1.0000 0.36581  0.49963  0.75000  Biso   1.000  O
  O47      1.0000 0.87183  0.49963  0.25000  Biso   1.000  O
  O48      1.0000 0.37183  0.49963  0.25000  Biso   1.000  O
  O49      1.0000 0.86223  0.75000  0.00037  Biso   1.000  O
  O50      1.0000 0.36938  0.75000  0.00037  Biso   1.000  O
  O51      1.0000 0.86938  0.75000  0.49963  Biso   1.000  O
  O52      1.0000 0.36223  0.75000  0.49963  Biso   1.000  O
  O53      1.0000 0.87541  0.25000  0.00037  Biso   1.000  O
  O54      1.0000 0.36826  0.25000  0.00037  Biso   1.000  O
  O55      1.0000 0.86826  0.25000  0.49963  Biso   1.000  O
  O56      1.0000 0.37541  0.25000  0.49963  Biso   1.000  O
  O57      1.0000 0.12459  0.75000  0.99963  Biso   1.000  O
  O58      1.0000 0.63174  0.75000  0.99963  Biso   1.000  O
  O59      1.0000 0.13174  0.75000  0.50037  Biso   1.000  O
  O60      1.0000 0.62459  0.75000  0.50037  Biso   1.000  O
  O61      1.0000 0.13777  0.25000  0.99963  Biso   1.000  O
  O62      1.0000 0.63062  0.25000  0.99963  Biso   1.000  O
  O63      1.0000 0.13062  0.25000  0.50037  Biso   1.000  O
  O64      1.0000 0.63777  0.25000  0.50037  Biso   1.000  O
  O65      1.0000 0.20187  0.99225  0.99608  Biso   1.000  O
  O66      1.0000 0.70187  0.99991  0.99608  Biso   1.000  O
  O67      1.0000 0.20187  0.99991  0.50392  Biso   1.000  O
  O68      1.0000 0.70187  0.99225  0.50392  Biso   1.000  O
  O69      1.0000 0.20187  0.50775  0.99608  Biso   1.000  O
  O70      1.0000 0.70187  0.50009  0.99608  Biso   1.000  O
  O71      1.0000 0.20187  0.50009  0.50392  Biso   1.000  O
  O72      1.0000 0.70187  0.50775  0.50392  Biso   1.000  O
  O73      1.0000 0.79813  0.00775  0.00392  Biso   1.000  O
  O74      1.0000 0.29813  0.00009  0.00392  Biso   1.000  O
  O75      1.0000 0.79813  0.00009  0.49608  Biso   1.000  O
  O76      1.0000 0.29813  0.00775  0.49608  Biso   1.000  O
  O77      1.0000 0.79813  0.49225  0.00392  Biso   1.000  O
  O78      1.0000 0.29813  0.49991  0.00392  Biso   1.000  O
  O79      1.0000 0.79813  0.49991  0.49608  Biso   1.000  O
  O80      1.0000 0.29813  0.49225  0.49608  Biso   1.000  O
