data_image0
_cell_length_a       5.55277
_cell_length_b       30.3622
_cell_length_c       7.8528
_cell_angle_alpha    90
_cell_angle_beta     135
_cell_angle_gamma    90

_symmetry_space_group_name_H-M    "P 1"
_symmetry_int_tables_number       1

loop_
  _symmetry_equiv_pos_as_xyz
  'x, y, z'

loop_
  _atom_site_label
  _atom_site_occupancy
  _atom_site_fract_x
  _atom_site_fract_y
  _atom_site_fract_z
  _atom_site_thermal_displace_type
  _atom_site_B_iso_or_equiv
  _atom_site_type_symbol
  K1       1.0000 1.00000  0.00000  0.75505  Biso   1.000  K
  K2       1.0000 0.00000  0.50000  0.74495  Biso   1.000  K
  K3       1.0000 0.00000  0.00000  0.24495  Biso   1.000  K
  K4       1.0000 1.00000  0.50000  0.25505  Biso   1.000  K
  Pb1      1.0000 0.00428  0.82337  0.74918  Biso   1.000  Pb
  Pb2      1.0000 0.99572  0.32337  0.75082  Biso   1.000  Pb
  Pb3      1.0000 0.00428  0.82337  0.25760  Biso   1.000  Pb
  Pb4      1.0000 0.99572  0.32337  0.24240  Biso   1.000  Pb
  Pb5      1.0000 0.00428  0.67663  0.24918  Biso   1.000  Pb
  Pb6      1.0000 0.99572  0.17663  0.25082  Biso   1.000  Pb
  Pb7      1.0000 0.00428  0.67663  0.75760  Biso   1.000  Pb
  Pb8      1.0000 0.99572  0.17663  0.74240  Biso   1.000  Pb
  Nb1      1.0000 0.50114  0.75000  0.75159  Biso   1.000  Nb
  Nb2      1.0000 0.49886  0.25000  0.74841  Biso   1.000  Nb
  Nb3      1.0000 0.50114  0.75000  0.25159  Biso   1.000  Nb
  Nb4      1.0000 0.49886  0.25000  0.24841  Biso   1.000  Nb
  Ta1      1.0000 0.51430  0.89358  0.75753  Biso   1.000  Ta
  Ta2      1.0000 0.48570  0.39358  0.74247  Biso   1.000  Ta
  Ta3      1.0000 0.51043  0.89358  0.25559  Biso   1.000  Ta
  Ta4      1.0000 0.48957  0.39358  0.24441  Biso   1.000  Ta
  Ta5      1.0000 0.51043  0.60642  0.75559  Biso   1.000  Ta
  Ta6      1.0000 0.48957  0.10642  0.74441  Biso   1.000  Ta
  Ta7      1.0000 0.51430  0.60642  0.25753  Biso   1.000  Ta
  Ta8      1.0000 0.48570  0.10642  0.24247  Biso   1.000  Ta
  O1       1.0000 0.51331  0.75000  0.00635  Biso   1.000  O
  O2       1.0000 0.48669  0.25000  0.99365  Biso   1.000  O
  O3       1.0000 0.51331  0.75000  0.50635  Biso   1.000  O
  O4       1.0000 0.48669  0.25000  0.49365  Biso   1.000  O
  O5       1.0000 0.00740  0.75616  0.00275  Biso   1.000  O
  O6       1.0000 0.99260  0.24384  0.99725  Biso   1.000  O
  O7       1.0000 0.00740  0.74384  0.50275  Biso   1.000  O
  O8       1.0000 0.99260  0.25616  0.49725  Biso   1.000  O
  O9       1.0000 0.49676  0.81512  0.74799  Biso   1.000  O
  O10      1.0000 0.50324  0.31512  0.75201  Biso   1.000  O
  O11      1.0000 0.52026  0.81512  0.25974  Biso   1.000  O
  O12      1.0000 0.47974  0.31512  0.24026  Biso   1.000  O
  O13      1.0000 0.52026  0.68488  0.75974  Biso   1.000  O
  O14      1.0000 0.47974  0.18488  0.74026  Biso   1.000  O
  O15      1.0000 0.49676  0.68488  0.24799  Biso   1.000  O
  O16      1.0000 0.50324  0.18488  0.25201  Biso   1.000  O
  O17      1.0000 0.50548  0.88118  0.00274  Biso   1.000  O
  O18      1.0000 0.49452  0.38118  0.99726  Biso   1.000  O
  O19      1.0000 0.50548  0.88118  0.50274  Biso   1.000  O
  O20      1.0000 0.49452  0.38118  0.49726  Biso   1.000  O
  O21      1.0000 0.50548  0.61882  0.50274  Biso   1.000  O
  O22      1.0000 0.49452  0.11882  0.49726  Biso   1.000  O
  O23      1.0000 0.50548  0.61882  0.00274  Biso   1.000  O
  O24      1.0000 0.49452  0.11882  0.99726  Biso   1.000  O
  O25      1.0000 0.00480  0.61524  0.00231  Biso   1.000  O
  O26      1.0000 0.99520  0.12240  0.99769  Biso   1.000  O
  O27      1.0000 0.00480  0.62240  0.50231  Biso   1.000  O
  O28      1.0000 0.99520  0.11524  0.49769  Biso   1.000  O
  O29      1.0000 0.00480  0.87760  0.00231  Biso   1.000  O
  O30      1.0000 0.99520  0.38476  0.99769  Biso   1.000  O
  O31      1.0000 0.00480  0.88476  0.50231  Biso   1.000  O
  O32      1.0000 0.99520  0.37760  0.49769  Biso   1.000  O
  O33      1.0000 0.51269  0.95187  0.75645  Biso   1.000  O
  O34      1.0000 0.48731  0.45187  0.74355  Biso   1.000  O
  O35      1.0000 0.49736  0.95187  0.24879  Biso   1.000  O
  O36      1.0000 0.50264  0.45187  0.25121  Biso   1.000  O
  O37      1.0000 0.49736  0.54813  0.74879  Biso   1.000  O
  O38      1.0000 0.50264  0.04813  0.75121  Biso   1.000  O
  O39      1.0000 0.51269  0.54813  0.25645  Biso   1.000  O
  O40      1.0000 0.48731  0.04813  0.24355  Biso   1.000  O
