data_image0
_cell_length_a       15.6806
_cell_length_b       15.6806
_cell_length_c       7.8528
_cell_angle_alpha    90
_cell_angle_beta     90
_cell_angle_gamma    150.998

_symmetry_space_group_name_H-M    "P 1"
_symmetry_int_tables_number       1

loop_
  _symmetry_equiv_pos_as_xyz
  'x, y, z'

loop_
  _atom_site_label
  _atom_site_occupancy
  _atom_site_fract_x
  _atom_site_fract_y
  _atom_site_fract_z
  _atom_site_thermal_displace_type
  _atom_site_B_iso_or_equiv
  _atom_site_type_symbol
  K1       1.0000 0.24747  0.24747  0.99192  Biso   1.000  K
  K2       1.0000 0.75253  0.75253  0.00808  Biso   1.000  K
  K3       1.0000 0.25253  0.25253  0.48687  Biso   1.000  K
  K4       1.0000 0.74747  0.74747  0.51313  Biso   1.000  K
  Pb1      1.0000 0.07548  0.42874  0.99789  Biso   1.000  Pb
  Pb2      1.0000 0.57126  0.92452  0.00211  Biso   1.000  Pb
  Pb3      1.0000 0.07126  0.42452  0.50211  Biso   1.000  Pb
  Pb4      1.0000 0.57548  0.92874  0.49789  Biso   1.000  Pb
  Pb5      1.0000 0.92874  0.57548  0.49789  Biso   1.000  Pb
  Pb6      1.0000 0.42452  0.07126  0.50211  Biso   1.000  Pb
  Pb7      1.0000 0.92452  0.57126  0.00211  Biso   1.000  Pb
  Pb8      1.0000 0.42874  0.07548  0.99789  Biso   1.000  Pb
  Nb1      1.0000 0.75000  0.25000  0.75000  Biso   1.000  Nb
  Nb2      1.0000 0.25000  0.75000  0.75000  Biso   1.000  Nb
  Nb3      1.0000 0.75000  0.25000  0.25000  Biso   1.000  Nb
  Nb4      1.0000 0.25000  0.75000  0.25000  Biso   1.000  Nb
  Ta1      1.0000 0.89310  0.10594  0.75048  Biso   1.000  Ta
  Ta2      1.0000 0.39406  0.60690  0.74952  Biso   1.000  Ta
  Ta3      1.0000 0.89406  0.10690  0.24952  Biso   1.000  Ta
  Ta4      1.0000 0.39310  0.60594  0.25048  Biso   1.000  Ta
  Ta5      1.0000 0.60690  0.39406  0.74952  Biso   1.000  Ta
  Ta6      1.0000 0.10594  0.89310  0.75048  Biso   1.000  Ta
  Ta7      1.0000 0.60594  0.39310  0.25048  Biso   1.000  Ta
  Ta8      1.0000 0.10690  0.89406  0.24952  Biso   1.000  Ta
  O1       1.0000 0.75308  0.24692  0.00000  Biso   1.000  O
  O2       1.0000 0.24692  0.75308  0.00000  Biso   1.000  O
  O3       1.0000 0.74692  0.25308  0.50000  Biso   1.000  O
  O4       1.0000 0.25308  0.74692  0.50000  Biso   1.000  O
  O5       1.0000 0.50308  0.99692  0.75000  Biso   1.000  O
  O6       1.0000 0.99692  0.50308  0.75000  Biso   1.000  O
  O7       1.0000 0.49692  0.00308  0.25000  Biso   1.000  O
  O8       1.0000 0.00308  0.49692  0.25000  Biso   1.000  O
  O9       1.0000 0.81806  0.18782  0.74706  Biso   1.000  O
  O10      1.0000 0.31218  0.68194  0.75294  Biso   1.000  O
  O11      1.0000 0.81218  0.18194  0.25294  Biso   1.000  O
  O12      1.0000 0.31806  0.68782  0.24706  Biso   1.000  O
  O13      1.0000 0.68194  0.31218  0.75294  Biso   1.000  O
  O14      1.0000 0.18782  0.81806  0.74706  Biso   1.000  O
  O15      1.0000 0.68782  0.31806  0.24706  Biso   1.000  O
  O16      1.0000 0.18194  0.81218  0.25294  Biso   1.000  O
  O17      1.0000 0.87939  0.12061  0.00000  Biso   1.000  O
  O18      1.0000 0.38297  0.61703  0.00000  Biso   1.000  O
  O19      1.0000 0.88297  0.11703  0.50000  Biso   1.000  O
  O20      1.0000 0.37939  0.62061  0.50000  Biso   1.000  O
  O21      1.0000 0.62061  0.37939  0.50000  Biso   1.000  O
  O22      1.0000 0.11703  0.88297  0.50000  Biso   1.000  O
  O23      1.0000 0.61703  0.38297  0.00000  Biso   1.000  O
  O24      1.0000 0.12061  0.87939  0.00000  Biso   1.000  O
  O25      1.0000 0.36703  0.13297  0.75000  Biso   1.000  O
  O26      1.0000 0.87061  0.62939  0.75000  Biso   1.000  O
  O27      1.0000 0.37061  0.12939  0.25000  Biso   1.000  O
  O28      1.0000 0.86703  0.63297  0.25000  Biso   1.000  O
  O29      1.0000 0.62939  0.87061  0.75000  Biso   1.000  O
  O30      1.0000 0.13297  0.36703  0.75000  Biso   1.000  O
  O31      1.0000 0.63297  0.86703  0.25000  Biso   1.000  O
  O32      1.0000 0.12939  0.37061  0.25000  Biso   1.000  O
  O33      1.0000 0.94995  0.04621  0.75192  Biso   1.000  O
  O34      1.0000 0.45379  0.55005  0.74808  Biso   1.000  O
  O35      1.0000 0.95379  0.05005  0.24808  Biso   1.000  O
  O36      1.0000 0.44995  0.54621  0.25192  Biso   1.000  O
  O37      1.0000 0.55005  0.45379  0.74808  Biso   1.000  O
  O38      1.0000 0.04621  0.94995  0.75192  Biso   1.000  O
  O39      1.0000 0.54621  0.44995  0.25192  Biso   1.000  O
  O40      1.0000 0.05005  0.95379  0.24808  Biso   1.000  O
