data_image0
_cell_length_a       5.55277
_cell_length_b       30.3622
_cell_length_c       5.55277
_cell_angle_alpha    90
_cell_angle_beta     90
_cell_angle_gamma    90

_symmetry_space_group_name_H-M    "P 1"
_symmetry_int_tables_number       1

loop_
  _symmetry_equiv_pos_as_xyz
  'x, y, z'

loop_
  _atom_site_label
  _atom_site_occupancy
  _atom_site_fract_x
  _atom_site_fract_y
  _atom_site_fract_z
  _atom_site_thermal_displace_type
  _atom_site_B_iso_or_equiv
  _atom_site_type_symbol
  K1       1.0000 0.25505  0.00000  0.75624  Biso   1.000  K
  K2       1.0000 0.24495  0.50000  0.76634  Biso   1.000  K
  K3       1.0000 0.74495  0.00000  0.24376  Biso   1.000  K
  K4       1.0000 0.75505  0.50000  0.23366  Biso   1.000  K
  Pb1      1.0000 0.24579  0.82337  0.75048  Biso   1.000  Pb
  Pb2      1.0000 0.25421  0.32337  0.74206  Biso   1.000  Pb
  Pb3      1.0000 0.75421  0.82337  0.24952  Biso   1.000  Pb
  Pb4      1.0000 0.74579  0.32337  0.25794  Biso   1.000  Pb
  Pb5      1.0000 0.74579  0.67663  0.25794  Biso   1.000  Pb
  Pb6      1.0000 0.75421  0.17663  0.24952  Biso   1.000  Pb
  Pb7      1.0000 0.25421  0.67663  0.74206  Biso   1.000  Pb
  Pb8      1.0000 0.24579  0.17663  0.75048  Biso   1.000  Pb
  Nb1      1.0000 0.75000  0.75000  0.75000  Biso   1.000  Nb
  Nb2      1.0000 0.75000  0.25000  0.75000  Biso   1.000  Nb
  Nb3      1.0000 0.25000  0.75000  0.25000  Biso   1.000  Nb
  Nb4      1.0000 0.25000  0.25000  0.25000  Biso   1.000  Nb
  Ta1      1.0000 0.74903  0.89358  0.75078  Biso   1.000  Ta
  Ta2      1.0000 0.75097  0.39358  0.75271  Biso   1.000  Ta
  Ta3      1.0000 0.25097  0.89358  0.24922  Biso   1.000  Ta
  Ta4      1.0000 0.24903  0.39358  0.24729  Biso   1.000  Ta
  Ta5      1.0000 0.75097  0.60642  0.75271  Biso   1.000  Ta
  Ta6      1.0000 0.74903  0.10642  0.75078  Biso   1.000  Ta
  Ta7      1.0000 0.24903  0.60642  0.24729  Biso   1.000  Ta
  Ta8      1.0000 0.25097  0.10642  0.24922  Biso   1.000  Ta
  O1       1.0000 0.00000  0.75000  0.50000  Biso   1.000  O
  O2       1.0000 0.00000  0.25000  0.50000  Biso   1.000  O
  O3       1.0000 0.50000  0.75000  0.00000  Biso   1.000  O
  O4       1.0000 0.50000  0.25000  0.00000  Biso   1.000  O
  O5       1.0000 0.50000  0.75616  0.50000  Biso   1.000  O
  O6       1.0000 0.50000  0.24384  0.50000  Biso   1.000  O
  O7       1.0000 0.00000  0.74384  0.00000  Biso   1.000  O
  O8       1.0000 0.00000  0.25616  0.00000  Biso   1.000  O
  O9       1.0000 0.75588  0.81512  0.75415  Biso   1.000  O
  O10      1.0000 0.74412  0.31512  0.74239  Biso   1.000  O
  O11      1.0000 0.24412  0.81512  0.24585  Biso   1.000  O
  O12      1.0000 0.25588  0.31512  0.25761  Biso   1.000  O
  O13      1.0000 0.74412  0.68488  0.74239  Biso   1.000  O
  O14      1.0000 0.75588  0.18488  0.75415  Biso   1.000  O
  O15      1.0000 0.25588  0.68488  0.25761  Biso   1.000  O
  O16      1.0000 0.24412  0.18488  0.24585  Biso   1.000  O
  O17      1.0000 0.00000  0.88248  0.50000  Biso   1.000  O
  O18      1.0000 0.00000  0.38248  0.50000  Biso   1.000  O
  O19      1.0000 0.50000  0.87988  0.00000  Biso   1.000  O
  O20      1.0000 0.50000  0.37988  0.00000  Biso   1.000  O
  O21      1.0000 0.50000  0.62012  0.00000  Biso   1.000  O
  O22      1.0000 0.50000  0.12012  0.00000  Biso   1.000  O
  O23      1.0000 0.00000  0.61752  0.50000  Biso   1.000  O
  O24      1.0000 0.00000  0.11752  0.50000  Biso   1.000  O
  O25      1.0000 0.50000  0.61394  0.50000  Biso   1.000  O
  O26      1.0000 0.50000  0.12110  0.50000  Biso   1.000  O
  O27      1.0000 0.00000  0.62370  0.00000  Biso   1.000  O
  O28      1.0000 0.00000  0.11654  0.00000  Biso   1.000  O
  O29      1.0000 0.50000  0.87890  0.50000  Biso   1.000  O
  O30      1.0000 0.50000  0.38606  0.50000  Biso   1.000  O
  O31      1.0000 0.00000  0.88346  0.00000  Biso   1.000  O
  O32      1.0000 0.00000  0.37630  0.00000  Biso   1.000  O
  O33      1.0000 0.74617  0.95187  0.75086  Biso   1.000  O
  O34      1.0000 0.75383  0.45187  0.75852  Biso   1.000  O
  O35      1.0000 0.25383  0.95187  0.24914  Biso   1.000  O
  O36      1.0000 0.24617  0.45187  0.24148  Biso   1.000  O
  O37      1.0000 0.75383  0.54813  0.75852  Biso   1.000  O
  O38      1.0000 0.74617  0.04813  0.75086  Biso   1.000  O
  O39      1.0000 0.24617  0.54813  0.24148  Biso   1.000  O
  O40      1.0000 0.25383  0.04813  0.24914  Biso   1.000  O
