data_image0
_cell_length_a       15.6806
_cell_length_b       5.55277
_cell_length_c       15.6806
_cell_angle_alpha    79.8016
_cell_angle_beta     20.3969
_cell_angle_gamma    79.8016

_symmetry_space_group_name_H-M    "P 1"
_symmetry_int_tables_number       1

loop_
  _symmetry_equiv_pos_as_xyz
  'x, y, z'

loop_
  _atom_site_label
  _atom_site_occupancy
  _atom_site_fract_x
  _atom_site_fract_y
  _atom_site_fract_z
  _atom_site_thermal_displace_type
  _atom_site_B_iso_or_equiv
  _atom_site_type_symbol
  K1       1.0000 0.83905  0.32895  0.16095  Biso   1.000  K
  K2       1.0000 0.32895  0.83905  0.67105  Biso   1.000  K
  Pb1      1.0000 0.00245  0.15761  0.35081  Biso   1.000  Pb
  Pb2      1.0000 0.51087  0.64919  0.84239  Biso   1.000  Pb
  Pb3      1.0000 0.64919  0.51087  0.99755  Biso   1.000  Pb
  Pb4      1.0000 0.15761  0.00245  0.48913  Biso   1.000  Pb
  Nb1      1.0000 0.58011  0.08011  0.91989  Biso   1.000  Nb
  Nb2      1.0000 0.08011  0.58011  0.41989  Biso   1.000  Nb
  Ta1      1.0000 0.43688  0.22404  0.77596  Biso   1.000  Ta
  Ta2      1.0000 0.93882  0.72598  0.27402  Biso   1.000  Ta
  Ta3      1.0000 0.72598  0.93882  0.06118  Biso   1.000  Ta
  Ta4      1.0000 0.22404  0.43688  0.56312  Biso   1.000  Ta
  O1       1.0000 0.83308  0.83308  0.66692  Biso   1.000  O
  O2       1.0000 0.33308  0.33308  0.16692  Biso   1.000  O
  O3       1.0000 0.32581  0.83814  0.16186  Biso   1.000  O
  O4       1.0000 0.83814  0.32581  0.67419  Biso   1.000  O
  O5       1.0000 0.52286  0.15310  0.84690  Biso   1.000  O
  O6       1.0000 0.01111  0.64135  0.35865  Biso   1.000  O
  O7       1.0000 0.64135  0.01111  0.98889  Biso   1.000  O
  O8       1.0000 0.15310  0.52286  0.47714  Biso   1.000  O
  O9       1.0000 0.70042  0.96278  0.53722  Biso   1.000  O
  O10      1.0000 0.20042  0.46278  0.03722  Biso   1.000  O
  O11      1.0000 0.46278  0.20042  0.29958  Biso   1.000  O
  O12      1.0000 0.96278  0.70042  0.79958  Biso   1.000  O
  O13      1.0000 0.46622  0.69670  0.30330  Biso   1.000  O
  O14      1.0000 0.95906  0.20386  0.79614  Biso   1.000  O
  O15      1.0000 0.20386  0.95906  0.04094  Biso   1.000  O
  O16      1.0000 0.69670  0.46622  0.53378  Biso   1.000  O
  O17      1.0000 0.37547  0.27921  0.72079  Biso   1.000  O
  O18      1.0000 0.88313  0.78687  0.21313  Biso   1.000  O
  O19      1.0000 0.78687  0.88313  0.11687  Biso   1.000  O
  O20      1.0000 0.27921  0.37547  0.62453  Biso   1.000  O
