data_image0
_cell_length_a       15.6806
_cell_length_b       15.6806
_cell_length_c       7.8528
_cell_angle_alpha    90
_cell_angle_beta     90
_cell_angle_gamma    150.998

_symmetry_space_group_name_H-M    "P 1"
_symmetry_int_tables_number       1

loop_
  _symmetry_equiv_pos_as_xyz
  'x, y, z'

loop_
  _atom_site_label
  _atom_site_occupancy
  _atom_site_fract_x
  _atom_site_fract_y
  _atom_site_fract_z
  _atom_site_thermal_displace_type
  _atom_site_B_iso_or_equiv
  _atom_site_type_symbol
  K1       1.0000 0.76391  0.24619  0.00000  Biso   1.000  K
  K2       1.0000 0.23609  0.75381  0.00000  Biso   1.000  K
  K3       1.0000 0.75381  0.23609  0.50000  Biso   1.000  K
  K4       1.0000 0.24619  0.76391  0.50000  Biso   1.000  K
  Pb1      1.0000 0.92293  0.06865  0.00000  Biso   1.000  Pb
  Pb2      1.0000 0.43033  0.57809  0.00000  Biso   1.000  Pb
  Pb3      1.0000 0.93135  0.07707  0.50000  Biso   1.000  Pb
  Pb4      1.0000 0.42191  0.56967  0.50000  Biso   1.000  Pb
  Pb5      1.0000 0.56967  0.42191  0.00000  Biso   1.000  Pb
  Pb6      1.0000 0.07707  0.93135  0.00000  Biso   1.000  Pb
  Pb7      1.0000 0.57809  0.43033  0.50000  Biso   1.000  Pb
  Pb8      1.0000 0.06865  0.92293  0.50000  Biso   1.000  Pb
  Nb1      1.0000 0.74973  0.74973  0.75000  Biso   1.000  Nb
  Nb2      1.0000 0.25027  0.25027  0.75000  Biso   1.000  Nb
  Nb3      1.0000 0.74973  0.74973  0.25000  Biso   1.000  Nb
  Nb4      1.0000 0.25027  0.25027  0.25000  Biso   1.000  Nb
  Ta1      1.0000 0.60721  0.89437  0.74903  Biso   1.000  Ta
  Ta2      1.0000 0.10563  0.39279  0.75097  Biso   1.000  Ta
  Ta3      1.0000 0.60721  0.89437  0.25097  Biso   1.000  Ta
  Ta4      1.0000 0.10563  0.39279  0.24903  Biso   1.000  Ta
  Ta5      1.0000 0.89437  0.60721  0.75097  Biso   1.000  Ta
  Ta6      1.0000 0.39279  0.10563  0.74903  Biso   1.000  Ta
  Ta7      1.0000 0.89437  0.60721  0.24903  Biso   1.000  Ta
  Ta8      1.0000 0.39279  0.10563  0.25097  Biso   1.000  Ta
  O1       1.0000 0.00000  0.00000  0.75000  Biso   1.000  O
  O2       1.0000 0.50000  0.50000  0.75000  Biso   1.000  O
  O3       1.0000 0.00000  0.00000  0.25000  Biso   1.000  O
  O4       1.0000 0.50000  0.50000  0.25000  Biso   1.000  O
  O5       1.0000 0.74395  0.75628  0.50000  Biso   1.000  O
  O6       1.0000 0.25605  0.24372  0.50000  Biso   1.000  O
  O7       1.0000 0.75628  0.74395  0.00000  Biso   1.000  O
  O8       1.0000 0.24372  0.25605  0.00000  Biso   1.000  O
  O9       1.0000 0.68398  0.81422  0.75588  Biso   1.000  O
  O10      1.0000 0.18578  0.31602  0.74412  Biso   1.000  O
  O11      1.0000 0.68398  0.81422  0.24412  Biso   1.000  O
  O12      1.0000 0.18578  0.31602  0.25588  Biso   1.000  O
  O13      1.0000 0.81422  0.68398  0.74412  Biso   1.000  O
  O14      1.0000 0.31602  0.18578  0.75588  Biso   1.000  O
  O15      1.0000 0.81422  0.68398  0.25588  Biso   1.000  O
  O16      1.0000 0.31602  0.18578  0.24412  Biso   1.000  O
  O17      1.0000 0.87070  0.12930  0.75000  Biso   1.000  O
  O18      1.0000 0.36694  0.63306  0.75000  Biso   1.000  O
  O19      1.0000 0.87070  0.12930  0.25000  Biso   1.000  O
  O20      1.0000 0.36694  0.63306  0.25000  Biso   1.000  O
  O21      1.0000 0.63306  0.36694  0.75000  Biso   1.000  O
  O22      1.0000 0.12930  0.87070  0.75000  Biso   1.000  O
  O23      1.0000 0.63306  0.36694  0.25000  Biso   1.000  O
  O24      1.0000 0.12930  0.87070  0.25000  Biso   1.000  O
  O25      1.0000 0.88497  0.61545  0.50000  Biso   1.000  O
  O26      1.0000 0.37739  0.12219  0.50000  Biso   1.000  O
  O27      1.0000 0.87781  0.62261  0.00000  Biso   1.000  O
  O28      1.0000 0.38455  0.11503  0.00000  Biso   1.000  O
  O29      1.0000 0.62261  0.87781  0.50000  Biso   1.000  O
  O30      1.0000 0.11503  0.38455  0.50000  Biso   1.000  O
  O31      1.0000 0.61545  0.88497  0.00000  Biso   1.000  O
  O32      1.0000 0.12219  0.37739  0.00000  Biso   1.000  O
  O33      1.0000 0.55155  0.95529  0.74617  Biso   1.000  O
  O34      1.0000 0.04471  0.44845  0.75383  Biso   1.000  O
  O35      1.0000 0.55155  0.95529  0.25383  Biso   1.000  O
  O36      1.0000 0.04471  0.44845  0.24617  Biso   1.000  O
  O37      1.0000 0.95529  0.55155  0.75383  Biso   1.000  O
  O38      1.0000 0.44845  0.04471  0.74617  Biso   1.000  O
  O39      1.0000 0.95529  0.55155  0.24617  Biso   1.000  O
  O40      1.0000 0.44845  0.04471  0.25383  Biso   1.000  O
