data_image0
_cell_length_a       5.55277
_cell_length_b       5.55277
_cell_length_c       15.6806
_cell_angle_alpha    100.198
_cell_angle_beta     100.198
_cell_angle_gamma    90

_symmetry_space_group_name_H-M    "P 1"
_symmetry_int_tables_number       1

loop_
  _symmetry_equiv_pos_as_xyz
  'x, y, z'

loop_
  _atom_site_label
  _atom_site_occupancy
  _atom_site_fract_x
  _atom_site_fract_y
  _atom_site_fract_z
  _atom_site_thermal_displace_type
  _atom_site_B_iso_or_equiv
  _atom_site_type_symbol
  K1       1.0000 0.24495  0.24495  0.50000  Biso   1.000  K
  K2       1.0000 0.75505  0.75505  0.50000  Biso   1.000  K
  Pb1      1.0000 0.07758  0.07758  0.14674  Biso   1.000  Pb
  Pb2      1.0000 0.56916  0.56916  0.14674  Biso   1.000  Pb
  Pb3      1.0000 0.43084  0.43084  0.85326  Biso   1.000  Pb
  Pb4      1.0000 0.92242  0.92242  0.85326  Biso   1.000  Pb
  Nb1      1.0000 0.50000  0.00000  0.00000  Biso   1.000  Nb
  Nb2      1.0000 0.00000  0.50000  0.00000  Biso   1.000  Nb
  Ta1      1.0000 0.64455  0.14261  0.28716  Biso   1.000  Ta
  Ta2      1.0000 0.14261  0.64455  0.28716  Biso   1.000  Ta
  Ta3      1.0000 0.35545  0.85739  0.71284  Biso   1.000  Ta
  Ta4      1.0000 0.85739  0.35545  0.71284  Biso   1.000  Ta
  O1       1.0000 0.24250  0.75750  0.00000  Biso   1.000  O
  O2       1.0000 0.75750  0.24250  0.00000  Biso   1.000  O
  O3       1.0000 0.74867  0.74867  0.01233  Biso   1.000  O
  O4       1.0000 0.25133  0.25133  0.98767  Biso   1.000  O
  O5       1.0000 0.55924  0.07100  0.13024  Biso   1.000  O
  O6       1.0000 0.07100  0.55924  0.13024  Biso   1.000  O
  O7       1.0000 0.44076  0.92900  0.86976  Biso   1.000  O
  O8       1.0000 0.92900  0.44076  0.86976  Biso   1.000  O
  O9       1.0000 0.38128  0.88108  0.26236  Biso   1.000  O
  O10      1.0000 0.88108  0.38128  0.26236  Biso   1.000  O
  O11      1.0000 0.61872  0.11892  0.73764  Biso   1.000  O
  O12      1.0000 0.11892  0.61872  0.73764  Biso   1.000  O
  O13      1.0000 0.61535  0.61535  0.73048  Biso   1.000  O
  O14      1.0000 0.12229  0.12229  0.74480  Biso   1.000  O
  O15      1.0000 0.87771  0.87771  0.25520  Biso   1.000  O
  O16      1.0000 0.38465  0.38465  0.26952  Biso   1.000  O
  O17      1.0000 0.70570  0.19804  0.40374  Biso   1.000  O
  O18      1.0000 0.19804  0.70570  0.40374  Biso   1.000  O
  O19      1.0000 0.29430  0.80196  0.59626  Biso   1.000  O
  O20      1.0000 0.80196  0.29430  0.59626  Biso   1.000  O
