data_image0
_cell_length_a       5.55277
_cell_length_b       30.3622
_cell_length_c       5.55277
_cell_angle_alpha    90
_cell_angle_beta     90
_cell_angle_gamma    90

_symmetry_space_group_name_H-M    "P 1"
_symmetry_int_tables_number       1

loop_
  _symmetry_equiv_pos_as_xyz
  'x, y, z'

loop_
  _atom_site_label
  _atom_site_occupancy
  _atom_site_fract_x
  _atom_site_fract_y
  _atom_site_fract_z
  _atom_site_thermal_displace_type
  _atom_site_B_iso_or_equiv
  _atom_site_type_symbol
  K1       1.0000 0.50505  0.25000  0.00979  Biso   1.000  K
  K2       1.0000 0.49495  0.75000  0.99021  Biso   1.000  K
  K3       1.0000 0.99495  0.25000  0.51989  Biso   1.000  K
  K4       1.0000 0.00505  0.75000  0.48011  Biso   1.000  K
  Pb1      1.0000 0.49579  0.07337  0.00393  Biso   1.000  Pb
  Pb2      1.0000 0.50421  0.57337  0.99607  Biso   1.000  Pb
  Pb3      1.0000 0.00421  0.07337  0.49550  Biso   1.000  Pb
  Pb4      1.0000 0.99579  0.57337  0.50450  Biso   1.000  Pb
  Pb5      1.0000 0.99579  0.92663  0.50450  Biso   1.000  Pb
  Pb6      1.0000 0.00421  0.42663  0.49550  Biso   1.000  Pb
  Pb7      1.0000 0.50421  0.92663  0.99607  Biso   1.000  Pb
  Pb8      1.0000 0.49579  0.42663  0.00393  Biso   1.000  Pb
  Nb1      1.0000 0.00000  0.00000  0.00000  Biso   1.000  Nb
  Nb2      1.0000 0.00000  0.50000  0.00000  Biso   1.000  Nb
  Nb3      1.0000 0.50000  0.00000  0.50000  Biso   1.000  Nb
  Nb4      1.0000 0.50000  0.50000  0.50000  Biso   1.000  Nb
  Ta1      1.0000 0.99903  0.14358  0.99820  Biso   1.000  Ta
  Ta2      1.0000 0.00097  0.64358  0.00180  Biso   1.000  Ta
  Ta3      1.0000 0.50097  0.14358  0.50014  Biso   1.000  Ta
  Ta4      1.0000 0.49903  0.64358  0.49986  Biso   1.000  Ta
  Ta5      1.0000 0.00097  0.85642  0.00180  Biso   1.000  Ta
  Ta6      1.0000 0.99903  0.35642  0.99820  Biso   1.000  Ta
  Ta7      1.0000 0.49903  0.85642  0.49986  Biso   1.000  Ta
  Ta8      1.0000 0.50097  0.35642  0.50014  Biso   1.000  Ta
  O1       1.0000 0.25000  1.00000  0.75000  Biso   1.000  O
  O2       1.0000 0.25000  0.50000  0.75000  Biso   1.000  O
  O3       1.0000 0.75000  0.00000  0.25000  Biso   1.000  O
  O4       1.0000 0.75000  0.50000  0.25000  Biso   1.000  O
  O5       1.0000 0.75000  0.00616  0.75000  Biso   1.000  O
  O6       1.0000 0.75000  0.49384  0.75000  Biso   1.000  O
  O7       1.0000 0.25000  0.99384  0.25000  Biso   1.000  O
  O8       1.0000 0.25000  0.50616  0.25000  Biso   1.000  O
  O9       1.0000 0.00588  0.06512  0.00569  Biso   1.000  O
  O10      1.0000 0.99412  0.56512  0.99431  Biso   1.000  O
  O11      1.0000 0.49412  0.06512  0.49394  Biso   1.000  O
  O12      1.0000 0.50588  0.56512  0.50606  Biso   1.000  O
  O13      1.0000 0.99412  0.93488  0.99431  Biso   1.000  O
  O14      1.0000 0.00588  0.43488  0.00569  Biso   1.000  O
  O15      1.0000 0.50588  0.93488  0.50606  Biso   1.000  O
  O16      1.0000 0.49412  0.43488  0.49394  Biso   1.000  O
  O17      1.0000 0.25000  0.13118  0.74971  Biso   1.000  O
  O18      1.0000 0.25000  0.63118  0.75029  Biso   1.000  O
  O19      1.0000 0.75000  0.13118  0.24971  Biso   1.000  O
  O20      1.0000 0.75000  0.63118  0.25029  Biso   1.000  O
  O21      1.0000 0.75000  0.86882  0.25029  Biso   1.000  O
  O22      1.0000 0.75000  0.36882  0.24971  Biso   1.000  O
  O23      1.0000 0.25000  0.86882  0.75029  Biso   1.000  O
  O24      1.0000 0.25000  0.36882  0.74971  Biso   1.000  O
  O25      1.0000 0.75000  0.86524  0.75029  Biso   1.000  O
  O26      1.0000 0.75000  0.37240  0.74971  Biso   1.000  O
  O27      1.0000 0.25000  0.87240  0.25029  Biso   1.000  O
  O28      1.0000 0.25000  0.36524  0.24971  Biso   1.000  O
  O29      1.0000 0.75000  0.12760  0.74971  Biso   1.000  O
  O30      1.0000 0.75000  0.63476  0.75029  Biso   1.000  O
  O31      1.0000 0.25000  0.13476  0.24971  Biso   1.000  O
  O32      1.0000 0.25000  0.62760  0.25029  Biso   1.000  O
  O33      1.0000 0.99617  0.20187  0.99496  Biso   1.000  O
  O34      1.0000 0.00383  0.70187  0.00504  Biso   1.000  O
  O35      1.0000 0.50383  0.20187  0.50263  Biso   1.000  O
  O36      1.0000 0.49617  0.70187  0.49737  Biso   1.000  O
  O37      1.0000 0.00383  0.79813  0.00504  Biso   1.000  O
  O38      1.0000 0.99617  0.29813  0.99496  Biso   1.000  O
  O39      1.0000 0.49617  0.79813  0.49737  Biso   1.000  O
  O40      1.0000 0.50383  0.29813  0.50263  Biso   1.000  O
