data_image0
_cell_length_a       15.6806
_cell_length_b       15.6806
_cell_length_c       15.6806
_cell_angle_alpha    159.603
_cell_angle_beta     29.0021
_cell_angle_gamma    159.603

_symmetry_space_group_name_H-M    "P 1"
_symmetry_int_tables_number       1

loop_
  _symmetry_equiv_pos_as_xyz
  'x, y, z'

loop_
  _atom_site_label
  _atom_site_occupancy
  _atom_site_fract_x
  _atom_site_fract_y
  _atom_site_fract_z
  _atom_site_thermal_displace_type
  _atom_site_B_iso_or_equiv
  _atom_site_type_symbol
  K1       1.0000 0.24495  0.49495  0.75000  Biso   1.000  K
  K2       1.0000 0.75505  0.50505  0.25000  Biso   1.000  K
  Pb1      1.0000 0.07758  0.50421  0.57337  Biso   1.000  Pb
  Pb2      1.0000 0.56916  0.49579  0.07337  Biso   1.000  Pb
  Pb3      1.0000 0.43084  0.50421  0.92663  Biso   1.000  Pb
  Pb4      1.0000 0.92242  0.49579  0.42663  Biso   1.000  Pb
  Nb1      1.0000 0.00000  0.00000  0.00000  Biso   1.000  Nb
  Nb2      1.0000 0.50000  0.00000  0.50000  Biso   1.000  Nb
  Ta1      1.0000 0.14261  0.99903  0.14358  Biso   1.000  Ta
  Ta2      1.0000 0.64455  0.00097  0.64358  Biso   1.000  Ta
  Ta3      1.0000 0.85739  0.00097  0.85642  Biso   1.000  Ta
  Ta4      1.0000 0.35545  0.99903  0.35642  Biso   1.000  Ta
  O1       1.0000 0.75308  0.00000  0.25308  Biso   1.000  O
  O2       1.0000 0.24692  0.00000  0.74692  Biso   1.000  O
  O3       1.0000 0.75308  0.50000  0.75308  Biso   1.000  O
  O4       1.0000 0.24692  0.50000  0.24692  Biso   1.000  O
  O5       1.0000 0.07100  0.00588  0.06512  Biso   1.000  O
  O6       1.0000 0.55924  0.99412  0.56512  Biso   1.000  O
  O7       1.0000 0.92900  0.99412  0.93488  Biso   1.000  O
  O8       1.0000 0.44076  0.00588  0.43488  Biso   1.000  O
  O9       1.0000 0.87939  0.00000  0.37939  Biso   1.000  O
  O10      1.0000 0.38297  0.00000  0.88297  Biso   1.000  O
  O11      1.0000 0.12061  0.00000  0.62061  Biso   1.000  O
  O12      1.0000 0.61703  0.00000  0.11703  Biso   1.000  O
  O13      1.0000 0.61703  0.50000  0.61703  Biso   1.000  O
  O14      1.0000 0.12061  0.50000  0.12061  Biso   1.000  O
  O15      1.0000 0.87939  0.50000  0.87939  Biso   1.000  O
  O16      1.0000 0.38297  0.50000  0.38297  Biso   1.000  O
  O17      1.0000 0.19804  0.99617  0.20187  Biso   1.000  O
  O18      1.0000 0.70570  0.00383  0.70187  Biso   1.000  O
  O19      1.0000 0.80196  0.00383  0.79813  Biso   1.000  O
  O20      1.0000 0.29430  0.99617  0.29813  Biso   1.000  O
