data_image0
_cell_length_a       5.55277
_cell_length_b       30.3622
_cell_length_c       7.8528
_cell_angle_alpha    90
_cell_angle_beta     135
_cell_angle_gamma    90

_symmetry_space_group_name_H-M    "P 1"
_symmetry_int_tables_number       1

loop_
  _symmetry_equiv_pos_as_xyz
  'x, y, z'

loop_
  _atom_site_label
  _atom_site_occupancy
  _atom_site_fract_x
  _atom_site_fract_y
  _atom_site_fract_z
  _atom_site_thermal_displace_type
  _atom_site_B_iso_or_equiv
  _atom_site_type_symbol
  K1       1.0000 1.00000  0.25000  0.00505  Biso   1.000  K
  K2       1.0000 0.00000  0.75000  0.99495  Biso   1.000  K
  K3       1.0000 0.00000  0.25000  0.49495  Biso   1.000  K
  K4       1.0000 1.00000  0.75000  0.50505  Biso   1.000  K
  Pb1      1.0000 0.99531  0.07337  0.99110  Biso   1.000  Pb
  Pb2      1.0000 0.99531  0.57337  0.99952  Biso   1.000  Pb
  Pb3      1.0000 0.00469  0.07337  0.50890  Biso   1.000  Pb
  Pb4      1.0000 0.00469  0.57337  0.50048  Biso   1.000  Pb
  Pb5      1.0000 0.99531  0.92663  0.49110  Biso   1.000  Pb
  Pb6      1.0000 0.99531  0.42663  0.49952  Biso   1.000  Pb
  Pb7      1.0000 0.00469  0.92663  0.00890  Biso   1.000  Pb
  Pb8      1.0000 0.00469  0.42663  0.00048  Biso   1.000  Pb
  Nb1      1.0000 0.50000  0.00000  0.00000  Biso   1.000  Nb
  Nb2      1.0000 0.50000  0.50000  0.00000  Biso   1.000  Nb
  Nb3      1.0000 0.50000  0.00000  0.50000  Biso   1.000  Nb
  Nb4      1.0000 0.50000  0.50000  0.50000  Biso   1.000  Nb
  Ta1      1.0000 0.50299  0.14358  0.00202  Biso   1.000  Ta
  Ta2      1.0000 0.49912  0.64358  0.00009  Biso   1.000  Ta
  Ta3      1.0000 0.49701  0.14358  0.49798  Biso   1.000  Ta
  Ta4      1.0000 0.50088  0.64358  0.49991  Biso   1.000  Ta
  Ta5      1.0000 0.49701  0.85642  0.99798  Biso   1.000  Ta
  Ta6      1.0000 0.50088  0.35642  0.99991  Biso   1.000  Ta
  Ta7      1.0000 0.50299  0.85642  0.50202  Biso   1.000  Ta
  Ta8      1.0000 0.49912  0.35642  0.50009  Biso   1.000  Ta
  O1       1.0000 0.50000  0.00330  0.25000  Biso   1.000  O
  O2       1.0000 0.50000  0.50330  0.25000  Biso   1.000  O
  O3       1.0000 0.50000  0.99670  0.75000  Biso   1.000  O
  O4       1.0000 0.50000  0.49670  0.75000  Biso   1.000  O
  O5       1.0000 0.00000  0.00947  0.25000  Biso   1.000  O
  O6       1.0000 0.00000  0.49714  0.25000  Biso   1.000  O
  O7       1.0000 1.00000  0.99053  0.75000  Biso   1.000  O
  O8       1.0000 1.00000  0.50286  0.75000  Biso   1.000  O
  O9       1.0000 0.48194  0.06512  0.98781  Biso   1.000  O
  O10      1.0000 0.50544  0.56512  0.99957  Biso   1.000  O
  O11      1.0000 0.51806  0.06512  0.51219  Biso   1.000  O
  O12      1.0000 0.49456  0.56512  0.50043  Biso   1.000  O
  O13      1.0000 0.51806  0.93488  0.01219  Biso   1.000  O
  O14      1.0000 0.49456  0.43488  0.00043  Biso   1.000  O
  O15      1.0000 0.48194  0.93488  0.48781  Biso   1.000  O
  O16      1.0000 0.50544  0.43488  0.49957  Biso   1.000  O
  O17      1.0000 0.50000  0.12933  0.25000  Biso   1.000  O
  O18      1.0000 0.50000  0.62933  0.25000  Biso   1.000  O
  O19      1.0000 0.50000  0.13303  0.75000  Biso   1.000  O
  O20      1.0000 0.50000  0.63303  0.75000  Biso   1.000  O
  O21      1.0000 0.50000  0.87067  0.75000  Biso   1.000  O
  O22      1.0000 0.50000  0.37067  0.75000  Biso   1.000  O
  O23      1.0000 0.50000  0.86697  0.25000  Biso   1.000  O
  O24      1.0000 0.50000  0.36697  0.25000  Biso   1.000  O
  O25      1.0000 0.00000  0.86339  0.25000  Biso   1.000  O
  O26      1.0000 0.00000  0.37055  0.25000  Biso   1.000  O
  O27      1.0000 1.00000  0.87425  0.75000  Biso   1.000  O
  O28      1.0000 1.00000  0.36709  0.75000  Biso   1.000  O
  O29      1.0000 0.00000  0.12575  0.25000  Biso   1.000  O
  O30      1.0000 0.00000  0.63291  0.25000  Biso   1.000  O
  O31      1.0000 1.00000  0.13661  0.75000  Biso   1.000  O
  O32      1.0000 1.00000  0.62945  0.75000  Biso   1.000  O
  O33      1.0000 0.51140  0.20187  0.00757  Biso   1.000  O
  O34      1.0000 0.49607  0.70187  0.99990  Biso   1.000  O
  O35      1.0000 0.48860  0.20187  0.49243  Biso   1.000  O
  O36      1.0000 0.50393  0.70187  0.50010  Biso   1.000  O
  O37      1.0000 0.48860  0.79813  0.99243  Biso   1.000  O
  O38      1.0000 0.50393  0.29813  0.00010  Biso   1.000  O
  O39      1.0000 0.51140  0.79813  0.50757  Biso   1.000  O
  O40      1.0000 0.49607  0.29813  0.49990  Biso   1.000  O
