data_image0
_cell_length_a       15.6806
_cell_length_b       15.6806
_cell_length_c       5.55277
_cell_angle_alpha    100.198
_cell_angle_beta     100.198
_cell_angle_gamma    150.998

_symmetry_space_group_name_H-M    "P 1"
_symmetry_int_tables_number       1

loop_
  _symmetry_equiv_pos_as_xyz
  'x, y, z'

loop_
  _atom_site_label
  _atom_site_occupancy
  _atom_site_fract_x
  _atom_site_fract_y
  _atom_site_fract_z
  _atom_site_thermal_displace_type
  _atom_site_B_iso_or_equiv
  _atom_site_type_symbol
  K1       1.0000 0.16095  0.16095  0.40590  Biso   1.000  K
  K2       1.0000 0.67105  0.67105  0.42610  Biso   1.000  K
  Pb1      1.0000 0.00153  0.35479  0.43237  Biso   1.000  Pb
  Pb2      1.0000 0.49310  0.84636  0.41552  Biso   1.000  Pb
  Pb3      1.0000 0.35479  0.00153  0.43237  Biso   1.000  Pb
  Pb4      1.0000 0.84636  0.49310  0.41552  Biso   1.000  Pb
  Nb1      1.0000 0.42378  0.92378  0.92378  Biso   1.000  Nb
  Nb2      1.0000 0.92378  0.42378  0.92378  Biso   1.000  Nb
  Ta1      1.0000 0.56569  0.77853  0.92114  Biso   1.000  Ta
  Ta2      1.0000 0.06375  0.27659  0.92114  Biso   1.000  Ta
  Ta3      1.0000 0.27659  0.06375  0.92114  Biso   1.000  Ta
  Ta4      1.0000 0.77853  0.56569  0.92114  Biso   1.000  Ta
  O1       1.0000 0.16895  0.66895  0.42005  Biso   1.000  O
  O2       1.0000 0.66895  0.16895  0.42005  Biso   1.000  O
  O3       1.0000 0.67511  0.16278  0.91785  Biso   1.000  O
  O4       1.0000 0.16278  0.67511  0.91785  Biso   1.000  O
  O5       1.0000 0.47904  0.84880  0.91979  Biso   1.000  O
  O6       1.0000 0.99079  0.36055  0.91979  Biso   1.000  O
  O7       1.0000 0.36055  0.99079  0.91979  Biso   1.000  O
  O8       1.0000 0.84880  0.47904  0.91979  Biso   1.000  O
  O9       1.0000 0.30212  0.53976  0.42108  Biso   1.000  O
  O10      1.0000 0.80212  0.03976  0.42108  Biso   1.000  O
  O11      1.0000 0.53976  0.30212  0.42108  Biso   1.000  O
  O12      1.0000 0.03976  0.80212  0.42108  Biso   1.000  O
  O13      1.0000 0.53618  0.30570  0.92080  Biso   1.000  O
  O14      1.0000 0.04334  0.79854  0.92080  Biso   1.000  O
  O15      1.0000 0.79854  0.04334  0.92080  Biso   1.000  O
  O16      1.0000 0.30570  0.53618  0.92080  Biso   1.000  O
  O17      1.0000 0.62736  0.72362  0.92166  Biso   1.000  O
  O18      1.0000 0.11970  0.21596  0.92166  Biso   1.000  O
  O19      1.0000 0.21596  0.11970  0.92166  Biso   1.000  O
  O20      1.0000 0.72362  0.62736  0.92166  Biso   1.000  O
