data_image0
_cell_length_a       5.55277
_cell_length_b       5.55277
_cell_length_c       30.3622
_cell_angle_alpha    90
_cell_angle_beta     90
_cell_angle_gamma    90

_symmetry_space_group_name_H-M    "P 1"
_symmetry_int_tables_number       1

loop_
  _symmetry_equiv_pos_as_xyz
  'x, y, z'

loop_
  _atom_site_label
  _atom_site_occupancy
  _atom_site_fract_x
  _atom_site_fract_y
  _atom_site_fract_z
  _atom_site_thermal_displace_type
  _atom_site_B_iso_or_equiv
  _atom_site_type_symbol
  K1       1.0000 0.74376  0.73366  0.00000  Biso   1.000  K
  K2       1.0000 0.73366  0.74376  0.50000  Biso   1.000  K
  K3       1.0000 0.25624  0.26634  0.00000  Biso   1.000  K
  K4       1.0000 0.26634  0.25624  0.50000  Biso   1.000  K
  Pb1      1.0000 0.74952  0.75794  0.82337  Biso   1.000  Pb
  Pb2      1.0000 0.75794  0.74952  0.32337  Biso   1.000  Pb
  Pb3      1.0000 0.25048  0.24206  0.82337  Biso   1.000  Pb
  Pb4      1.0000 0.24206  0.25048  0.32337  Biso   1.000  Pb
  Pb5      1.0000 0.24206  0.25048  0.67663  Biso   1.000  Pb
  Pb6      1.0000 0.25048  0.24206  0.17663  Biso   1.000  Pb
  Pb7      1.0000 0.75794  0.74952  0.67663  Biso   1.000  Pb
  Pb8      1.0000 0.74952  0.75794  0.17663  Biso   1.000  Pb
  Nb1      1.0000 0.75000  0.25000  0.75000  Biso   1.000  Nb
  Nb2      1.0000 0.75000  0.25000  0.25000  Biso   1.000  Nb
  Nb3      1.0000 0.25000  0.75000  0.75000  Biso   1.000  Nb
  Nb4      1.0000 0.25000  0.75000  0.25000  Biso   1.000  Nb
  Ta1      1.0000 0.74922  0.25271  0.89358  Biso   1.000  Ta
  Ta2      1.0000 0.74729  0.25078  0.39358  Biso   1.000  Ta
  Ta3      1.0000 0.25078  0.74729  0.89358  Biso   1.000  Ta
  Ta4      1.0000 0.25271  0.74922  0.39358  Biso   1.000  Ta
  Ta5      1.0000 0.74729  0.25078  0.60642  Biso   1.000  Ta
  Ta6      1.0000 0.74922  0.25271  0.10642  Biso   1.000  Ta
  Ta7      1.0000 0.25271  0.74922  0.60642  Biso   1.000  Ta
  Ta8      1.0000 0.25078  0.74729  0.10642  Biso   1.000  Ta
  O1       1.0000 0.00000  0.00000  0.75000  Biso   1.000  O
  O2       1.0000 0.00000  0.00000  0.25000  Biso   1.000  O
  O3       1.0000 0.50000  0.50000  0.75000  Biso   1.000  O
  O4       1.0000 0.50000  0.50000  0.25000  Biso   1.000  O
  O5       1.0000 0.00000  0.50000  0.75616  Biso   1.000  O
  O6       1.0000 0.00000  0.50000  0.24384  Biso   1.000  O
  O7       1.0000 0.50000  0.00000  0.74384  Biso   1.000  O
  O8       1.0000 0.50000  0.00000  0.25616  Biso   1.000  O
  O9       1.0000 0.74585  0.24239  0.81512  Biso   1.000  O
  O10      1.0000 0.75761  0.25415  0.31512  Biso   1.000  O
  O11      1.0000 0.25415  0.75761  0.81512  Biso   1.000  O
  O12      1.0000 0.24239  0.74585  0.31512  Biso   1.000  O
  O13      1.0000 0.75761  0.25415  0.68488  Biso   1.000  O
  O14      1.0000 0.74585  0.24239  0.18488  Biso   1.000  O
  O15      1.0000 0.24239  0.74585  0.68488  Biso   1.000  O
  O16      1.0000 0.25415  0.75761  0.18488  Biso   1.000  O
  O17      1.0000 0.00000  0.00000  0.88379  Biso   1.000  O
  O18      1.0000 0.00000  0.00000  0.38379  Biso   1.000  O
  O19      1.0000 0.50000  0.50000  0.87857  Biso   1.000  O
  O20      1.0000 0.50000  0.50000  0.37857  Biso   1.000  O
  O21      1.0000 0.50000  0.50000  0.62143  Biso   1.000  O
  O22      1.0000 0.50000  0.50000  0.12143  Biso   1.000  O
  O23      1.0000 0.00000  0.00000  0.61621  Biso   1.000  O
  O24      1.0000 0.00000  0.00000  0.11621  Biso   1.000  O
  O25      1.0000 0.00000  0.50000  0.61524  Biso   1.000  O
  O26      1.0000 0.00000  0.50000  0.12240  Biso   1.000  O
  O27      1.0000 0.50000  0.00000  0.62240  Biso   1.000  O
  O28      1.0000 0.50000  0.00000  0.11524  Biso   1.000  O
  O29      1.0000 0.00000  0.50000  0.87760  Biso   1.000  O
  O30      1.0000 0.00000  0.50000  0.38476  Biso   1.000  O
  O31      1.0000 0.50000  0.00000  0.88476  Biso   1.000  O
  O32      1.0000 0.50000  0.00000  0.37760  Biso   1.000  O
  O33      1.0000 0.74914  0.25852  0.95187  Biso   1.000  O
  O34      1.0000 0.74148  0.25086  0.45187  Biso   1.000  O
  O35      1.0000 0.25086  0.74148  0.95187  Biso   1.000  O
  O36      1.0000 0.25852  0.74914  0.45187  Biso   1.000  O
  O37      1.0000 0.74148  0.25086  0.54813  Biso   1.000  O
  O38      1.0000 0.74914  0.25852  0.04813  Biso   1.000  O
  O39      1.0000 0.25852  0.74914  0.54813  Biso   1.000  O
  O40      1.0000 0.25086  0.74148  0.04813  Biso   1.000  O
