data_image0
_cell_length_a       15.1811
_cell_length_b       5.55277
_cell_length_c       5.55277
_cell_angle_alpha    90
_cell_angle_beta     90
_cell_angle_gamma    90

_symmetry_space_group_name_H-M    "P 1"
_symmetry_int_tables_number       1

loop_
  _symmetry_equiv_pos_as_xyz
  'x, y, z'

loop_
  _atom_site_label
  _atom_site_occupancy
  _atom_site_fract_x
  _atom_site_fract_y
  _atom_site_fract_z
  _atom_site_thermal_displace_type
  _atom_site_B_iso_or_equiv
  _atom_site_type_symbol
  K1       1.0000 0.50000  0.76129  0.58400  Biso   1.000  K
  K2       1.0000 0.50000  0.23871  0.08400  Biso   1.000  K
  Pb1      1.0000 0.14674  0.74627  0.57606  Biso   1.000  Pb
  Pb2      1.0000 0.14674  0.25373  0.07606  Biso   1.000  Pb
  Pb3      1.0000 0.85326  0.25373  0.07606  Biso   1.000  Pb
  Pb4      1.0000 0.85326  0.74627  0.57606  Biso   1.000  Pb
  Nb1      1.0000 0.00000  0.75000  0.07622  Biso   1.000  Nb
  Nb2      1.0000 0.00000  0.25000  0.57622  Biso   1.000  Nb
  Ta1      1.0000 0.28716  0.75175  0.07886  Biso   1.000  Ta
  Ta2      1.0000 0.28716  0.24825  0.57886  Biso   1.000  Ta
  Ta3      1.0000 0.71284  0.75175  0.07886  Biso   1.000  Ta
  Ta4      1.0000 0.71284  0.24825  0.57886  Biso   1.000  Ta
  O1       1.0000 0.00000  0.50110  0.33105  Biso   1.000  O
  O2       1.0000 0.00000  0.00110  0.83105  Biso   1.000  O
  O3       1.0000 0.00000  0.49890  0.83105  Biso   1.000  O
  O4       1.0000 0.00000  0.99890  0.33105  Biso   1.000  O
  O5       1.0000 0.13024  0.74827  0.08021  Biso   1.000  O
  O6       1.0000 0.13024  0.25173  0.58021  Biso   1.000  O
  O7       1.0000 0.86976  0.74827  0.08021  Biso   1.000  O
  O8       1.0000 0.86976  0.25173  0.58021  Biso   1.000  O
  O9       1.0000 0.26497  0.50014  0.32906  Biso   1.000  O
  O10      1.0000 0.25975  0.00014  0.82906  Biso   1.000  O
  O11      1.0000 0.74025  0.00014  0.82906  Biso   1.000  O
  O12      1.0000 0.73503  0.50014  0.32906  Biso   1.000  O
  O13      1.0000 0.73503  0.49986  0.82906  Biso   1.000  O
  O14      1.0000 0.74025  0.99986  0.32906  Biso   1.000  O
  O15      1.0000 0.26497  0.49986  0.82906  Biso   1.000  O
  O16      1.0000 0.25975  0.99986  0.32906  Biso   1.000  O
  O17      1.0000 0.40374  0.75469  0.07834  Biso   1.000  O
  O18      1.0000 0.40374  0.24531  0.57834  Biso   1.000  O
  O19      1.0000 0.59626  0.75469  0.07834  Biso   1.000  O
  O20      1.0000 0.59626  0.24531  0.57834  Biso   1.000  O
