data_image0
_cell_length_a       5.55277
_cell_length_b       15.1811
_cell_length_c       7.8528
_cell_angle_alpha    90
_cell_angle_beta     135
_cell_angle_gamma    90

_symmetry_space_group_name_H-M    "P 1"
_symmetry_int_tables_number       1

loop_
  _symmetry_equiv_pos_as_xyz
  'x, y, z'

loop_
  _atom_site_label
  _atom_site_occupancy
  _atom_site_fract_x
  _atom_site_fract_y
  _atom_site_fract_z
  _atom_site_thermal_displace_type
  _atom_site_B_iso_or_equiv
  _atom_site_type_symbol
  K1       1.0000 0.58400  0.50000  0.58400  Biso   1.000  K
  K2       1.0000 0.58400  0.50000  0.08400  Biso   1.000  K
  Pb1      1.0000 0.58075  0.85326  0.58472  Biso   1.000  Pb
  Pb2      1.0000 0.57136  0.85326  0.07534  Biso   1.000  Pb
  Pb3      1.0000 0.58075  0.14674  0.08472  Biso   1.000  Pb
  Pb4      1.0000 0.57136  0.14674  0.57534  Biso   1.000  Pb
  Nb1      1.0000 0.07622  0.00000  0.08011  Biso   1.000  Nb
  Nb2      1.0000 0.07622  0.00000  0.58011  Biso   1.000  Nb
  Ta1      1.0000 0.07991  0.71284  0.08248  Biso   1.000  Ta
  Ta2      1.0000 0.07781  0.71284  0.58038  Biso   1.000  Ta
  Ta3      1.0000 0.07781  0.28716  0.08038  Biso   1.000  Ta
  Ta4      1.0000 0.07991  0.28716  0.58248  Biso   1.000  Ta
  O1       1.0000 0.08215  0.99339  0.33308  Biso   1.000  O
  O2       1.0000 0.08215  0.00661  0.83308  Biso   1.000  O
  O3       1.0000 0.57995  0.00661  0.83197  Biso   1.000  O
  O4       1.0000 0.57995  0.99339  0.33197  Biso   1.000  O
  O5       1.0000 0.07390  0.86976  0.07579  Biso   1.000  O
  O6       1.0000 0.08652  0.86976  0.58841  Biso   1.000  O
  O7       1.0000 0.08652  0.13024  0.08841  Biso   1.000  O
  O8       1.0000 0.07390  0.13024  0.57579  Biso   1.000  O
  O9       1.0000 0.07920  0.74135  0.33160  Biso   1.000  O
  O10      1.0000 0.07920  0.73393  0.83160  Biso   1.000  O
  O11      1.0000 0.07920  0.25865  0.83160  Biso   1.000  O
  O12      1.0000 0.07920  0.26607  0.33160  Biso   1.000  O
  O13      1.0000 0.57892  0.25865  0.83146  Biso   1.000  O
  O14      1.0000 0.57892  0.26607  0.33146  Biso   1.000  O
  O15      1.0000 0.57892  0.73393  0.83146  Biso   1.000  O
  O16      1.0000 0.57892  0.74135  0.33146  Biso   1.000  O
  O17      1.0000 0.08207  0.59626  0.08490  Biso   1.000  O
  O18      1.0000 0.07460  0.59626  0.57744  Biso   1.000  O
  O19      1.0000 0.07460  0.40374  0.07744  Biso   1.000  O
  O20      1.0000 0.08207  0.40374  0.58490  Biso   1.000  O
