data_image0
_cell_length_a       15.6806
_cell_length_b       15.6806
_cell_length_c       15.6806
_cell_angle_alpha    29.0021
_cell_angle_beta     159.603
_cell_angle_gamma    159.603

_symmetry_space_group_name_H-M    "P 1"
_symmetry_int_tables_number       1

loop_
  _symmetry_equiv_pos_as_xyz
  'x, y, z'

loop_
  _atom_site_label
  _atom_site_occupancy
  _atom_site_fract_x
  _atom_site_fract_y
  _atom_site_fract_z
  _atom_site_thermal_displace_type
  _atom_site_B_iso_or_equiv
  _atom_site_type_symbol
  K1       1.0000 0.57895  0.83400  0.24495  Biso   1.000  K
  K2       1.0000 0.58905  0.33400  0.75505  Biso   1.000  K
  Pb1      1.0000 0.58027  0.64943  0.07758  Biso   1.000  Pb
  Pb2      1.0000 0.57184  0.14943  0.56916  Biso   1.000  Pb
  Pb3      1.0000 0.58027  0.00269  0.43084  Biso   1.000  Pb
  Pb4      1.0000 0.57184  0.50269  0.92242  Biso   1.000  Pb
  Nb1      1.0000 0.07622  0.07622  0.00000  Biso   1.000  Nb
  Nb2      1.0000 0.07622  0.57622  0.50000  Biso   1.000  Nb
  Ta1      1.0000 0.07789  0.22244  0.14261  Biso   1.000  Ta
  Ta2      1.0000 0.07983  0.72244  0.64455  Biso   1.000  Ta
  Ta3      1.0000 0.07983  0.93528  0.85739  Biso   1.000  Ta
  Ta4      1.0000 0.07789  0.43528  0.35545  Biso   1.000  Ta
  O1       1.0000 0.08215  0.33413  0.75418  Biso   1.000  O
  O2       1.0000 0.08215  0.82797  0.24802  Biso   1.000  O
  O3       1.0000 0.57995  0.83413  0.75198  Biso   1.000  O
  O4       1.0000 0.57995  0.32797  0.24582  Biso   1.000  O
  O5       1.0000 0.08608  0.14533  0.07100  Biso   1.000  O
  O6       1.0000 0.07433  0.64533  0.55924  Biso   1.000  O
  O7       1.0000 0.07433  0.01509  0.92900  Biso   1.000  O
  O8       1.0000 0.08608  0.51509  0.44076  Biso   1.000  O
  O9       1.0000 0.07920  0.45845  0.87953  Biso   1.000  O
  O10      1.0000 0.07920  0.96203  0.38311  Biso   1.000  O
  O11      1.0000 0.07920  0.69967  0.12075  Biso   1.000  O
  O12      1.0000 0.07920  0.19609  0.61717  Biso   1.000  O
  O13      1.0000 0.57892  0.69609  0.61689  Biso   1.000  O
  O14      1.0000 0.57892  0.19967  0.12047  Biso   1.000  O
  O15      1.0000 0.57892  0.95845  0.87925  Biso   1.000  O
  O16      1.0000 0.57892  0.46203  0.38283  Biso   1.000  O
  O17      1.0000 0.07451  0.28021  0.19804  Biso   1.000  O
  O18      1.0000 0.08217  0.78021  0.70570  Biso   1.000  O
  O19      1.0000 0.08217  0.87647  0.80196  Biso   1.000  O
  O20      1.0000 0.07451  0.37647  0.29430  Biso   1.000  O
