data_image0
_cell_length_a       16.1647
_cell_length_b       7.8528
_cell_length_c       16.1647
_cell_angle_alpha    75.9423
_cell_angle_beta     28.1154
_cell_angle_gamma    75.9423

_symmetry_space_group_name_H-M    "P 1"
_symmetry_int_tables_number       1

loop_
  _symmetry_equiv_pos_as_xyz
  'x, y, z'

loop_
  _atom_site_label
  _atom_site_occupancy
  _atom_site_fract_x
  _atom_site_fract_y
  _atom_site_fract_z
  _atom_site_thermal_displace_type
  _atom_site_B_iso_or_equiv
  _atom_site_type_symbol
  K1       1.0000 0.94029  0.47571  0.52429  Biso   1.000  K
  K2       1.0000 0.47571  0.94029  0.05971  Biso   1.000  K
  K3       1.0000 0.95800  0.95800  0.54200  Biso   1.000  K
  K4       1.0000 0.45800  0.45800  0.04200  Biso   1.000  K
  Pb1      1.0000 0.78432  0.63963  0.36037  Biso   1.000  Pb
  Pb2      1.0000 0.28637  0.13758  0.86242  Biso   1.000  Pb
  Pb3      1.0000 0.78534  0.13860  0.36140  Biso   1.000  Pb
  Pb4      1.0000 0.28534  0.63860  0.86140  Biso   1.000  Pb
  Pb5      1.0000 0.63860  0.28534  0.21466  Biso   1.000  Pb
  Pb6      1.0000 0.13860  0.78534  0.71466  Biso   1.000  Pb
  Pb7      1.0000 0.63963  0.78432  0.21568  Biso   1.000  Pb
  Pb8      1.0000 0.13758  0.28637  0.71363  Biso   1.000  Pb
  Nb1      1.0000 0.96216  0.96216  0.03784  Biso   1.000  Nb
  Nb2      1.0000 0.46162  0.46162  0.53838  Biso   1.000  Nb
  Nb3      1.0000 0.96216  0.46162  0.03784  Biso   1.000  Nb
  Nb4      1.0000 0.46162  0.96216  0.53838  Biso   1.000  Nb
  Ta1      1.0000 0.10336  0.81620  0.18380  Biso   1.000  Ta
  Ta2      1.0000 0.60494  0.31778  0.68222  Biso   1.000  Ta
  Ta3      1.0000 0.10336  0.31778  0.18380  Biso   1.000  Ta
  Ta4      1.0000 0.60494  0.81620  0.68222  Biso   1.000  Ta
  Ta5      1.0000 0.81620  0.10336  0.89664  Biso   1.000  Ta
  Ta6      1.0000 0.31778  0.60494  0.39506  Biso   1.000  Ta
  Ta7      1.0000 0.81620  0.60494  0.89664  Biso   1.000  Ta
  Ta8      1.0000 0.31778  0.10336  0.39506  Biso   1.000  Ta
  O1       1.0000 0.95881  0.71003  0.04119  Biso   1.000  O
  O2       1.0000 0.45904  0.21003  0.54096  Biso   1.000  O
  O3       1.0000 0.95881  0.21003  0.04119  Biso   1.000  O
  O4       1.0000 0.45904  0.71003  0.54096  Biso   1.000  O
  O5       1.0000 0.21003  0.95881  0.78997  Biso   1.000  O
  O6       1.0000 0.71003  0.45904  0.28997  Biso   1.000  O
  O7       1.0000 0.21003  0.45904  0.78997  Biso   1.000  O
  O8       1.0000 0.71003  0.95881  0.28997  Biso   1.000  O
  O9       1.0000 0.02592  0.89568  0.10432  Biso   1.000  O
  O10      1.0000 0.52412  0.39388  0.60612  Biso   1.000  O
  O11      1.0000 0.02592  0.39388  0.10432  Biso   1.000  O
  O12      1.0000 0.52412  0.89568  0.60612  Biso   1.000  O
  O13      1.0000 0.89568  0.02592  0.97408  Biso   1.000  O
  O14      1.0000 0.39388  0.52412  0.47588  Biso   1.000  O
  O15      1.0000 0.89568  0.52412  0.97408  Biso   1.000  O
  O16      1.0000 0.39388  0.02592  0.47588  Biso   1.000  O
  O17      1.0000 0.08950  0.58124  0.16911  Biso   1.000  O
  O18      1.0000 0.59366  0.07748  0.67245  Biso   1.000  O
  O19      1.0000 0.09325  0.07748  0.17286  Biso   1.000  O
  O20      1.0000 0.58991  0.58124  0.66870  Biso   1.000  O
  O21      1.0000 0.82714  0.34360  0.90675  Biso   1.000  O
  O22      1.0000 0.33130  0.83984  0.41009  Biso   1.000  O
  O23      1.0000 0.83089  0.83984  0.91050  Biso   1.000  O
  O24      1.0000 0.32755  0.34360  0.40634  Biso   1.000  O
  O25      1.0000 0.07748  0.09325  0.65640  Biso   1.000  O
  O26      1.0000 0.58124  0.58991  0.16016  Biso   1.000  O
  O27      1.0000 0.07748  0.59366  0.65640  Biso   1.000  O
  O28      1.0000 0.58124  0.08950  0.16016  Biso   1.000  O
  O29      1.0000 0.34360  0.82714  0.92252  Biso   1.000  O
  O30      1.0000 0.83984  0.33130  0.41876  Biso   1.000  O
  O31      1.0000 0.34360  0.32755  0.92252  Biso   1.000  O
  O32      1.0000 0.83984  0.83089  0.41876  Biso   1.000  O
  O33      1.0000 0.15928  0.75554  0.24446  Biso   1.000  O
  O34      1.0000 0.66612  0.26238  0.73762  Biso   1.000  O
  O35      1.0000 0.15928  0.26238  0.24446  Biso   1.000  O
  O36      1.0000 0.66612  0.75554  0.73762  Biso   1.000  O
  O37      1.0000 0.75554  0.15928  0.84072  Biso   1.000  O
  O38      1.0000 0.26238  0.66612  0.33388  Biso   1.000  O
  O39      1.0000 0.75554  0.66612  0.84072  Biso   1.000  O
  O40      1.0000 0.26238  0.15928  0.33388  Biso   1.000  O
