data_image0
_cell_length_a       3.9264
_cell_length_b       30.3622
_cell_length_c       3.9264
_cell_angle_alpha    90
_cell_angle_beta     90
_cell_angle_gamma    90

_symmetry_space_group_name_H-M    "P 1"
_symmetry_int_tables_number       1

loop_
  _symmetry_equiv_pos_as_xyz
  'x, y, z'

loop_
  _atom_site_label
  _atom_site_occupancy
  _atom_site_fract_x
  _atom_site_fract_y
  _atom_site_fract_z
  _atom_site_thermal_displace_type
  _atom_site_B_iso_or_equiv
  _atom_site_type_symbol
  K1       1.0000 0.58400  0.00000  0.44568  Biso   1.000  K
  K2       1.0000 0.58400  0.50000  0.38632  Biso   1.000  K
  Pb1      1.0000 0.57606  0.82337  0.42338  Biso   1.000  Pb
  Pb2      1.0000 0.57606  0.32337  0.42451  Biso   1.000  Pb
  Pb3      1.0000 0.57606  0.67663  0.42451  Biso   1.000  Pb
  Pb4      1.0000 0.57606  0.17663  0.42338  Biso   1.000  Pb
  Nb1      1.0000 0.07622  0.75000  0.92378  Biso   1.000  Nb
  Nb2      1.0000 0.07622  0.25000  0.92378  Biso   1.000  Nb
  Ta1      1.0000 0.07886  0.89358  0.91948  Biso   1.000  Ta
  Ta2      1.0000 0.07886  0.39358  0.92280  Biso   1.000  Ta
  Ta3      1.0000 0.07886  0.60642  0.92280  Biso   1.000  Ta
  Ta4      1.0000 0.07886  0.10642  0.91948  Biso   1.000  Ta
  O1       1.0000 0.08215  0.75000  0.42005  Biso   1.000  O
  O2       1.0000 0.08215  0.25000  0.42005  Biso   1.000  O
  O3       1.0000 0.57995  0.75000  0.91785  Biso   1.000  O
  O4       1.0000 0.57995  0.25000  0.91785  Biso   1.000  O
  O5       1.0000 0.08021  0.81512  0.91942  Biso   1.000  O
  O6       1.0000 0.08021  0.31512  0.92017  Biso   1.000  O
  O7       1.0000 0.08021  0.68488  0.92017  Biso   1.000  O
  O8       1.0000 0.08021  0.18488  0.91942  Biso   1.000  O
  O9       1.0000 0.07920  0.88118  0.42050  Biso   1.000  O
  O10      1.0000 0.07920  0.38118  0.42166  Biso   1.000  O
  O11      1.0000 0.07920  0.61882  0.42166  Biso   1.000  O
  O12      1.0000 0.07920  0.11882  0.42050  Biso   1.000  O
  O13      1.0000 0.57892  0.61882  0.92139  Biso   1.000  O
  O14      1.0000 0.57892  0.11882  0.92022  Biso   1.000  O
  O15      1.0000 0.57892  0.88118  0.92022  Biso   1.000  O
  O16      1.0000 0.57892  0.38118  0.92139  Biso   1.000  O
  O17      1.0000 0.07834  0.95187  0.91926  Biso   1.000  O
  O18      1.0000 0.07834  0.45187  0.92407  Biso   1.000  O
  O19      1.0000 0.07834  0.54813  0.92407  Biso   1.000  O
  O20      1.0000 0.07834  0.04813  0.91926  Biso   1.000  O
