data_image0
_cell_length_a       15.6806
_cell_length_b       15.6806
_cell_length_c       5.55277
_cell_angle_alpha    100.198
_cell_angle_beta     100.198
_cell_angle_gamma    150.998

_symmetry_space_group_name_H-M    "P 1"
_symmetry_int_tables_number       1

loop_
  _symmetry_equiv_pos_as_xyz
  'x, y, z'

loop_
  _atom_site_label
  _atom_site_occupancy
  _atom_site_fract_x
  _atom_site_fract_y
  _atom_site_fract_z
  _atom_site_thermal_displace_type
  _atom_site_B_iso_or_equiv
  _atom_site_type_symbol
  K1       1.0000 0.25000  0.25000  0.41095  Biso   1.000  K
  K2       1.0000 0.75000  0.75000  0.42105  Biso   1.000  K
  Pb1      1.0000 0.42266  0.06940  0.42021  Biso   1.000  Pb
  Pb2      1.0000 0.92266  0.56940  0.41179  Biso   1.000  Pb
  Pb3      1.0000 0.06940  0.42266  0.42021  Biso   1.000  Pb
  Pb4      1.0000 0.56940  0.92266  0.41179  Biso   1.000  Pb
  Nb1      1.0000 0.49611  0.99611  0.91600  Biso   1.000  Nb
  Nb2      1.0000 0.99611  0.49611  0.91600  Biso   1.000  Nb
  Ta1      1.0000 0.35385  0.14101  0.91697  Biso   1.000  Ta
  Ta2      1.0000 0.85385  0.64101  0.91503  Biso   1.000  Ta
  Ta3      1.0000 0.64101  0.85385  0.91503  Biso   1.000  Ta
  Ta4      1.0000 0.14101  0.35385  0.91697  Biso   1.000  Ta
  O1       1.0000 0.25216  0.74599  0.41600  Biso   1.000  O
  O2       1.0000 0.74599  0.25216  0.41600  Biso   1.000  O
  O3       1.0000 0.24489  0.75106  0.91600  Biso   1.000  O
  O4       1.0000 0.75106  0.24489  0.91600  Biso   1.000  O
  O5       1.0000 0.43298  0.06322  0.91012  Biso   1.000  O
  O6       1.0000 0.93298  0.56322  0.92188  Biso   1.000  O
  O7       1.0000 0.56322  0.93298  0.92188  Biso   1.000  O
  O8       1.0000 0.06322  0.43298  0.91012  Biso   1.000  O
  O9       1.0000 0.11463  0.88057  0.41600  Biso   1.000  O
  O10      1.0000 0.61821  0.37699  0.41600  Biso   1.000  O
  O11      1.0000 0.88057  0.11463  0.41600  Biso   1.000  O
  O12      1.0000 0.37699  0.61821  0.41600  Biso   1.000  O
  O13      1.0000 0.38043  0.61449  0.91600  Biso   1.000  O
  O14      1.0000 0.87685  0.11807  0.91600  Biso   1.000  O
  O15      1.0000 0.11807  0.87685  0.91600  Biso   1.000  O
  O16      1.0000 0.61449  0.38043  0.91600  Biso   1.000  O
  O17      1.0000 0.29530  0.19904  0.91983  Biso   1.000  O
  O18      1.0000 0.79530  0.69904  0.91217  Biso   1.000  O
  O19      1.0000 0.69904  0.79530  0.91217  Biso   1.000  O
  O20      1.0000 0.19904  0.29530  0.91983  Biso   1.000  O
