data_image0
_cell_length_a       3.9264
_cell_length_b       15.1811
_cell_length_c       7.8528
_cell_angle_alpha    90
_cell_angle_beta     90
_cell_angle_gamma    90

_symmetry_space_group_name_H-M    "P 1"
_symmetry_int_tables_number       1

loop_
  _symmetry_equiv_pos_as_xyz
  'x, y, z'

loop_
  _atom_site_label
  _atom_site_occupancy
  _atom_site_fract_x
  _atom_site_fract_y
  _atom_site_fract_z
  _atom_site_thermal_displace_type
  _atom_site_B_iso_or_equiv
  _atom_site_type_symbol
  K1       1.0000 0.58400  0.51172  0.70800  Biso   1.000  K
  K2       1.0000 0.58400  0.48828  0.20800  Biso   1.000  K
  Pb1      1.0000 0.57606  0.14766  0.71197  Biso   1.000  Pb
  Pb2      1.0000 0.57606  0.14582  0.21197  Biso   1.000  Pb
  Pb3      1.0000 0.57606  0.85234  0.21197  Biso   1.000  Pb
  Pb4      1.0000 0.57606  0.85418  0.71197  Biso   1.000  Pb
  Nb1      1.0000 0.07622  0.00000  0.96189  Biso   1.000  Nb
  Nb2      1.0000 0.07622  0.00000  0.46189  Biso   1.000  Nb
  Ta1      1.0000 0.07886  0.28716  0.96130  Biso   1.000  Ta
  Ta2      1.0000 0.07886  0.28716  0.45984  Biso   1.000  Ta
  Ta3      1.0000 0.07886  0.71284  0.95984  Biso   1.000  Ta
  Ta4      1.0000 0.07886  0.71284  0.46130  Biso   1.000  Ta
  O1       1.0000 0.08215  0.99355  0.71003  Biso   1.000  O
  O2       1.0000 0.08215  0.00645  0.21003  Biso   1.000  O
  O3       1.0000 0.57995  0.00000  0.95892  Biso   1.000  O
  O4       1.0000 0.57995  0.00000  0.45892  Biso   1.000  O
  O5       1.0000 0.08021  0.13024  0.95698  Biso   1.000  O
  O6       1.0000 0.08021  0.13024  0.46281  Biso   1.000  O
  O7       1.0000 0.08021  0.86976  0.96281  Biso   1.000  O
  O8       1.0000 0.08021  0.86976  0.45698  Biso   1.000  O
  O9       1.0000 0.07920  0.26839  0.71054  Biso   1.000  O
  O10      1.0000 0.07920  0.25633  0.21054  Biso   1.000  O
  O11      1.0000 0.07920  0.73161  0.21054  Biso   1.000  O
  O12      1.0000 0.07920  0.74367  0.71054  Biso   1.000  O
  O13      1.0000 0.57892  0.73764  0.96003  Biso   1.000  O
  O14      1.0000 0.57892  0.73764  0.46078  Biso   1.000  O
  O15      1.0000 0.57892  0.26236  0.96078  Biso   1.000  O
  O16      1.0000 0.57892  0.26236  0.46003  Biso   1.000  O
  O17      1.0000 0.07834  0.40374  0.96475  Biso   1.000  O
  O18      1.0000 0.07834  0.40374  0.45691  Biso   1.000  O
  O19      1.0000 0.07834  0.59626  0.95691  Biso   1.000  O
  O20      1.0000 0.07834  0.59626  0.46475  Biso   1.000  O
