data_image0
_cell_length_a       3.9264
_cell_length_b       15.1811
_cell_length_c       7.8528
_cell_angle_alpha    90
_cell_angle_beta     90
_cell_angle_gamma    90

_symmetry_space_group_name_H-M    "P 1"
_symmetry_int_tables_number       1

loop_
  _symmetry_equiv_pos_as_xyz
  'x, y, z'

loop_
  _atom_site_label
  _atom_site_occupancy
  _atom_site_fract_x
  _atom_site_fract_y
  _atom_site_fract_z
  _atom_site_thermal_displace_type
  _atom_site_B_iso_or_equiv
  _atom_site_type_symbol
  K1       1.0000 0.60521  0.50000  0.29200  Biso   1.000  K
  K2       1.0000 0.56279  0.50000  0.79200  Biso   1.000  K
  Pb1      1.0000 0.57606  0.85326  0.28803  Biso   1.000  Pb
  Pb2      1.0000 0.57606  0.85326  0.78803  Biso   1.000  Pb
  Pb3      1.0000 0.57606  0.14674  0.78803  Biso   1.000  Pb
  Pb4      1.0000 0.57606  0.14674  0.28803  Biso   1.000  Pb
  Nb1      1.0000 0.07622  0.00000  0.03811  Biso   1.000  Nb
  Nb2      1.0000 0.07622  0.00000  0.53811  Biso   1.000  Nb
  Ta1      1.0000 0.07886  0.71284  0.03943  Biso   1.000  Ta
  Ta2      1.0000 0.07886  0.71284  0.53943  Biso   1.000  Ta
  Ta3      1.0000 0.07886  0.28716  0.03943  Biso   1.000  Ta
  Ta4      1.0000 0.07886  0.28716  0.53943  Biso   1.000  Ta
  O1       1.0000 0.08215  0.00000  0.28997  Biso   1.000  O
  O2       1.0000 0.08215  0.00000  0.78997  Biso   1.000  O
  O3       1.0000 0.57995  0.00000  0.04108  Biso   1.000  O
  O4       1.0000 0.57995  0.00000  0.54108  Biso   1.000  O
  O5       1.0000 0.08021  0.86976  0.04010  Biso   1.000  O
  O6       1.0000 0.08021  0.86976  0.54010  Biso   1.000  O
  O7       1.0000 0.08021  0.13024  0.04010  Biso   1.000  O
  O8       1.0000 0.08021  0.13024  0.54010  Biso   1.000  O
  O9       1.0000 0.07920  0.73764  0.28946  Biso   1.000  O
  O10      1.0000 0.07920  0.73764  0.78946  Biso   1.000  O
  O11      1.0000 0.07920  0.26236  0.78946  Biso   1.000  O
  O12      1.0000 0.07920  0.26236  0.28946  Biso   1.000  O
  O13      1.0000 0.57892  0.26236  0.03960  Biso   1.000  O
  O14      1.0000 0.57892  0.26236  0.53960  Biso   1.000  O
  O15      1.0000 0.57892  0.73764  0.03960  Biso   1.000  O
  O16      1.0000 0.57892  0.73764  0.53960  Biso   1.000  O
  O17      1.0000 0.07834  0.59626  0.03917  Biso   1.000  O
  O18      1.0000 0.07834  0.59626  0.53917  Biso   1.000  O
  O19      1.0000 0.07834  0.40374  0.03917  Biso   1.000  O
  O20      1.0000 0.07834  0.40374  0.53917  Biso   1.000  O
