data_image0
_cell_length_a       5.55277
_cell_length_b       15.1811
_cell_length_c       5.55277
_cell_angle_alpha    90
_cell_angle_beta     90
_cell_angle_gamma    90

_symmetry_space_group_name_H-M    "P 1"
_symmetry_int_tables_number       1

loop_
  _symmetry_equiv_pos_as_xyz
  'x, y, z'

loop_
  _atom_site_label
  _atom_site_occupancy
  _atom_site_fract_x
  _atom_site_fract_y
  _atom_site_fract_z
  _atom_site_thermal_displace_type
  _atom_site_B_iso_or_equiv
  _atom_site_type_symbol
  K1       1.0000 0.00000  0.50000  0.40471  Biso   1.000  K
  K2       1.0000 0.50000  0.50000  0.92729  Biso   1.000  K
  Pb1      1.0000 0.99603  0.14674  0.42370  Biso   1.000  Pb
  Pb2      1.0000 0.49603  0.14674  0.91624  Biso   1.000  Pb
  Pb3      1.0000 0.49603  0.85326  0.91624  Biso   1.000  Pb
  Pb4      1.0000 0.99603  0.85326  0.42370  Biso   1.000  Pb
  Nb1      1.0000 0.99611  0.00000  0.91989  Biso   1.000  Nb
  Nb2      1.0000 0.49611  0.00000  0.41989  Biso   1.000  Nb
  Ta1      1.0000 0.99743  0.28716  0.92032  Biso   1.000  Ta
  Ta2      1.0000 0.49743  0.28716  0.41683  Biso   1.000  Ta
  Ta3      1.0000 0.99743  0.71284  0.92032  Biso   1.000  Ta
  Ta4      1.0000 0.49743  0.71284  0.41683  Biso   1.000  Ta
  O1       1.0000 0.74908  0.00000  0.66692  Biso   1.000  O
  O2       1.0000 0.24908  0.00000  0.16692  Biso   1.000  O
  O3       1.0000 0.74797  0.00000  0.16803  Biso   1.000  O
  O4       1.0000 0.24797  0.00000  0.66803  Biso   1.000  O
  O5       1.0000 0.99810  0.13024  0.91616  Biso   1.000  O
  O6       1.0000 0.49810  0.13024  0.41963  Biso   1.000  O
  O7       1.0000 0.99810  0.86976  0.91616  Biso   1.000  O
  O8       1.0000 0.49810  0.86976  0.41963  Biso   1.000  O
  O9       1.0000 0.74760  0.26497  0.66840  Biso   1.000  O
  O10      1.0000 0.24760  0.25975  0.16840  Biso   1.000  O
  O11      1.0000 0.24760  0.74025  0.16840  Biso   1.000  O
  O12      1.0000 0.74760  0.73503  0.66840  Biso   1.000  O
  O13      1.0000 0.74746  0.74025  0.16854  Biso   1.000  O
  O14      1.0000 0.24746  0.73503  0.66854  Biso   1.000  O
  O15      1.0000 0.74746  0.25975  0.16854  Biso   1.000  O
  O16      1.0000 0.24746  0.26497  0.66854  Biso   1.000  O
  O17      1.0000 0.99717  0.40374  0.92352  Biso   1.000  O
  O18      1.0000 0.49717  0.40374  0.41414  Biso   1.000  O
  O19      1.0000 0.99717  0.59626  0.92352  Biso   1.000  O
  O20      1.0000 0.49717  0.59626  0.41414  Biso   1.000  O
