data_image0
_cell_length_a       3.9264
_cell_length_b       15.6806
_cell_length_c       15.6806
_cell_angle_alpha    150.998
_cell_angle_beta     90
_cell_angle_gamma    90

_symmetry_space_group_name_H-M    "P 1"
_symmetry_int_tables_number       1

loop_
  _symmetry_equiv_pos_as_xyz
  'x, y, z'

loop_
  _atom_site_label
  _atom_site_occupancy
  _atom_site_fract_x
  _atom_site_fract_y
  _atom_site_fract_z
  _atom_site_thermal_displace_type
  _atom_site_B_iso_or_equiv
  _atom_site_type_symbol
  K1       1.0000 0.50000  0.53314  0.05086  Biso   1.000  K
  K2       1.0000 0.50000  0.05086  0.53314  Biso   1.000  K
  Pb1      1.0000 0.50000  0.36089  0.21517  Biso   1.000  Pb
  Pb2      1.0000 0.50000  0.86191  0.71415  Biso   1.000  Pb
  Pb3      1.0000 0.50000  0.21517  0.36089  Biso   1.000  Pb
  Pb4      1.0000 0.50000  0.71415  0.86191  Biso   1.000  Pb
  Nb1      1.0000 0.00000  0.03784  0.03784  Biso   1.000  Nb
  Nb2      1.0000 0.00000  0.53838  0.53838  Biso   1.000  Nb
  Ta1      1.0000 0.00000  0.18380  0.89664  Biso   1.000  Ta
  Ta2      1.0000 0.00000  0.68222  0.39506  Biso   1.000  Ta
  Ta3      1.0000 0.00000  0.89664  0.18380  Biso   1.000  Ta
  Ta4      1.0000 0.00000  0.39506  0.68222  Biso   1.000  Ta
  O1       1.0000 0.50000  0.04119  0.04119  Biso   1.000  O
  O2       1.0000 0.50000  0.54096  0.54096  Biso   1.000  O
  O3       1.0000 0.00000  0.78997  0.78997  Biso   1.000  O
  O4       1.0000 0.00000  0.28997  0.28997  Biso   1.000  O
  O5       1.0000 0.00000  0.10432  0.97408  Biso   1.000  O
  O6       1.0000 0.00000  0.60612  0.47588  Biso   1.000  O
  O7       1.0000 0.00000  0.97408  0.10432  Biso   1.000  O
  O8       1.0000 0.00000  0.47588  0.60612  Biso   1.000  O
  O9       1.0000 0.50000  0.17098  0.90862  Biso   1.000  O
  O10      1.0000 0.50000  0.67057  0.40821  Biso   1.000  O
  O11      1.0000 0.50000  0.90862  0.17098  Biso   1.000  O
  O12      1.0000 0.50000  0.40821  0.67057  Biso   1.000  O
  O13      1.0000 0.00000  0.65640  0.92252  Biso   1.000  O
  O14      1.0000 0.00000  0.16016  0.41876  Biso   1.000  O
  O15      1.0000 0.00000  0.92252  0.65640  Biso   1.000  O
  O16      1.0000 0.00000  0.41876  0.16016  Biso   1.000  O
  O17      1.0000 0.00000  0.24446  0.84072  Biso   1.000  O
  O18      1.0000 0.00000  0.73762  0.33388  Biso   1.000  O
  O19      1.0000 0.00000  0.84072  0.24446  Biso   1.000  O
  O20      1.0000 0.00000  0.33388  0.73762  Biso   1.000  O
