data_image0
_cell_length_a       16.1647
_cell_length_b       7.8528
_cell_length_c       16.1647
_cell_angle_alpha    75.9423
_cell_angle_beta     28.1154
_cell_angle_gamma    75.9423

_symmetry_space_group_name_H-M    "P 1"
_symmetry_int_tables_number       1

loop_
  _symmetry_equiv_pos_as_xyz
  'x, y, z'

loop_
  _atom_site_label
  _atom_site_occupancy
  _atom_site_fract_x
  _atom_site_fract_y
  _atom_site_fract_z
  _atom_site_thermal_displace_type
  _atom_site_B_iso_or_equiv
  _atom_site_type_symbol
  K1       1.0000 0.46861  0.46861  0.53139  Biso   1.000  K
  K2       1.0000 0.94739  0.94739  0.05261  Biso   1.000  K
  K3       1.0000 0.44739  0.96861  0.55261  Biso   1.000  K
  K4       1.0000 0.96861  0.44739  0.03139  Biso   1.000  K
  Pb1      1.0000 0.28534  0.63860  0.36140  Biso   1.000  Pb
  Pb2      1.0000 0.78534  0.13860  0.86140  Biso   1.000  Pb
  Pb3      1.0000 0.28534  0.13860  0.36140  Biso   1.000  Pb
  Pb4      1.0000 0.78534  0.63860  0.86140  Biso   1.000  Pb
  Pb5      1.0000 0.13860  0.28534  0.21466  Biso   1.000  Pb
  Pb6      1.0000 0.63860  0.78534  0.71466  Biso   1.000  Pb
  Pb7      1.0000 0.13860  0.78534  0.21466  Biso   1.000  Pb
  Pb8      1.0000 0.63860  0.28534  0.71466  Biso   1.000  Pb
  Nb1      1.0000 0.46189  0.96189  0.03811  Biso   1.000  Nb
  Nb2      1.0000 0.96189  0.46189  0.53811  Biso   1.000  Nb
  Nb3      1.0000 0.46189  0.46189  0.03811  Biso   1.000  Nb
  Nb4      1.0000 0.96189  0.96189  0.53811  Biso   1.000  Nb
  Ta1      1.0000 0.60415  0.81699  0.18301  Biso   1.000  Ta
  Ta2      1.0000 0.10415  0.31699  0.68301  Biso   1.000  Ta
  Ta3      1.0000 0.60415  0.31699  0.18301  Biso   1.000  Ta
  Ta4      1.0000 0.10415  0.81699  0.68301  Biso   1.000  Ta
  Ta5      1.0000 0.31699  0.10415  0.89585  Biso   1.000  Ta
  Ta6      1.0000 0.81699  0.60415  0.39585  Biso   1.000  Ta
  Ta7      1.0000 0.31699  0.60415  0.89585  Biso   1.000  Ta
  Ta8      1.0000 0.81699  0.10415  0.39585  Biso   1.000  Ta
  O1       1.0000 0.45892  0.71003  0.04108  Biso   1.000  O
  O2       1.0000 0.95892  0.21003  0.54108  Biso   1.000  O
  O3       1.0000 0.45892  0.21003  0.04108  Biso   1.000  O
  O4       1.0000 0.95892  0.71003  0.54108  Biso   1.000  O
  O5       1.0000 0.71003  0.95892  0.78997  Biso   1.000  O
  O6       1.0000 0.21003  0.45892  0.28997  Biso   1.000  O
  O7       1.0000 0.71003  0.45892  0.78997  Biso   1.000  O
  O8       1.0000 0.21003  0.95892  0.28997  Biso   1.000  O
  O9       1.0000 0.52502  0.89478  0.10522  Biso   1.000  O
  O10      1.0000 0.02502  0.39478  0.60522  Biso   1.000  O
  O11      1.0000 0.52502  0.39478  0.10522  Biso   1.000  O
  O12      1.0000 0.02502  0.89478  0.60522  Biso   1.000  O
  O13      1.0000 0.39478  0.02502  0.97498  Biso   1.000  O
  O14      1.0000 0.89478  0.52502  0.47498  Biso   1.000  O
  O15      1.0000 0.39478  0.52502  0.97498  Biso   1.000  O
  O16      1.0000 0.89478  0.02502  0.47498  Biso   1.000  O
  O17      1.0000 0.59158  0.57936  0.17078  Biso   1.000  O
  O18      1.0000 0.09158  0.07936  0.67078  Biso   1.000  O
  O19      1.0000 0.59158  0.07936  0.17078  Biso   1.000  O
  O20      1.0000 0.09158  0.57936  0.67078  Biso   1.000  O
  O21      1.0000 0.32922  0.34172  0.90842  Biso   1.000  O
  O22      1.0000 0.82922  0.84172  0.40842  Biso   1.000  O
  O23      1.0000 0.32922  0.84172  0.90842  Biso   1.000  O
  O24      1.0000 0.82922  0.34172  0.40842  Biso   1.000  O
  O25      1.0000 0.57936  0.09158  0.65828  Biso   1.000  O
  O26      1.0000 0.07936  0.59158  0.15828  Biso   1.000  O
  O27      1.0000 0.57936  0.59158  0.65828  Biso   1.000  O
  O28      1.0000 0.07936  0.09158  0.15828  Biso   1.000  O
  O29      1.0000 0.84172  0.82922  0.92064  Biso   1.000  O
  O30      1.0000 0.34172  0.32922  0.42064  Biso   1.000  O
  O31      1.0000 0.84172  0.32922  0.92064  Biso   1.000  O
  O32      1.0000 0.34172  0.82922  0.42064  Biso   1.000  O
  O33      1.0000 0.66270  0.75896  0.24104  Biso   1.000  O
  O34      1.0000 0.16270  0.25896  0.74104  Biso   1.000  O
  O35      1.0000 0.66270  0.25896  0.24104  Biso   1.000  O
  O36      1.0000 0.16270  0.75896  0.74104  Biso   1.000  O
  O37      1.0000 0.25896  0.16270  0.83730  Biso   1.000  O
  O38      1.0000 0.75896  0.66270  0.33730  Biso   1.000  O
  O39      1.0000 0.25896  0.66270  0.83730  Biso   1.000  O
  O40      1.0000 0.75896  0.16270  0.33730  Biso   1.000  O
