data_image0
_cell_length_a       5.55277
_cell_length_b       15.1811
_cell_length_c       7.8528
_cell_angle_alpha    90
_cell_angle_beta     135
_cell_angle_gamma    90

_symmetry_space_group_name_H-M    "P 1"
_symmetry_int_tables_number       1

loop_
  _symmetry_equiv_pos_as_xyz
  'x, y, z'

loop_
  _atom_site_label
  _atom_site_occupancy
  _atom_site_fract_x
  _atom_site_fract_y
  _atom_site_fract_z
  _atom_site_thermal_displace_type
  _atom_site_B_iso_or_equiv
  _atom_site_type_symbol
  K1       1.0000 0.58400  0.50000  0.58400  Biso   1.000  K
  K2       1.0000 0.58400  0.50000  0.08400  Biso   1.000  K
  Pb1      1.0000 0.58544  0.85326  0.58075  Biso   1.000  Pb
  Pb2      1.0000 0.56667  0.85326  0.07136  Biso   1.000  Pb
  Pb3      1.0000 0.58544  0.14674  0.08075  Biso   1.000  Pb
  Pb4      1.0000 0.56667  0.14674  0.57136  Biso   1.000  Pb
  Nb1      1.0000 0.07622  0.00000  0.07622  Biso   1.000  Nb
  Nb2      1.0000 0.07622  0.00000  0.57622  Biso   1.000  Nb
  Ta1      1.0000 0.07886  0.71284  0.07991  Biso   1.000  Ta
  Ta2      1.0000 0.07886  0.71284  0.57781  Biso   1.000  Ta
  Ta3      1.0000 0.07886  0.28716  0.07781  Biso   1.000  Ta
  Ta4      1.0000 0.07886  0.28716  0.57991  Biso   1.000  Ta
  O1       1.0000 0.08215  0.98678  0.33105  Biso   1.000  O
  O2       1.0000 0.08215  0.01322  0.83105  Biso   1.000  O
  O3       1.0000 0.57995  0.00000  0.83105  Biso   1.000  O
  O4       1.0000 0.57995  1.00000  0.33105  Biso   1.000  O
  O5       1.0000 0.08021  0.86976  0.07390  Biso   1.000  O
  O6       1.0000 0.08021  0.86976  0.58652  Biso   1.000  O
  O7       1.0000 0.08021  0.13024  0.08652  Biso   1.000  O
  O8       1.0000 0.08021  0.13024  0.57390  Biso   1.000  O
  O9       1.0000 0.07920  0.74505  0.32906  Biso   1.000  O
  O10      1.0000 0.07920  0.73023  0.82906  Biso   1.000  O
  O11      1.0000 0.07920  0.25495  0.82906  Biso   1.000  O
  O12      1.0000 0.07920  0.26977  0.32906  Biso   1.000  O
  O13      1.0000 0.57892  0.26236  0.82906  Biso   1.000  O
  O14      1.0000 0.57892  0.26236  0.32906  Biso   1.000  O
  O15      1.0000 0.57892  0.73764  0.82906  Biso   1.000  O
  O16      1.0000 0.57892  0.73764  0.32906  Biso   1.000  O
  O17      1.0000 0.07834  0.59626  0.08207  Biso   1.000  O
  O18      1.0000 0.07834  0.59626  0.57460  Biso   1.000  O
  O19      1.0000 0.07834  0.40374  0.07460  Biso   1.000  O
  O20      1.0000 0.07834  0.40374  0.58207  Biso   1.000  O
