data_image0
_cell_length_a       3.9264
_cell_length_b       30.3622
_cell_length_c       3.9264
_cell_angle_alpha    90
_cell_angle_beta     90
_cell_angle_gamma    90

_symmetry_space_group_name_H-M    "P 1"
_symmetry_int_tables_number       1

loop_
  _symmetry_equiv_pos_as_xyz
  'x, y, z'

loop_
  _atom_site_label
  _atom_site_occupancy
  _atom_site_fract_x
  _atom_site_fract_y
  _atom_site_fract_z
  _atom_site_thermal_displace_type
  _atom_site_B_iso_or_equiv
  _atom_site_type_symbol
  K1       1.0000 0.58400  0.75000  0.58400  Biso   1.000  K
  K2       1.0000 0.58400  0.25000  0.58400  Biso   1.000  K
  Pb1      1.0000 0.57517  0.92663  0.58311  Biso   1.000  Pb
  Pb2      1.0000 0.57695  0.42663  0.58489  Biso   1.000  Pb
  Pb3      1.0000 0.57517  0.07337  0.58311  Biso   1.000  Pb
  Pb4      1.0000 0.57695  0.57337  0.58489  Biso   1.000  Pb
  Nb1      1.0000 0.07666  0.00000  0.08445  Biso   1.000  Nb
  Nb2      1.0000 0.07577  0.50000  0.08355  Biso   1.000  Nb
  Ta1      1.0000 0.07306  0.85642  0.07820  Biso   1.000  Ta
  Ta2      1.0000 0.08466  0.35642  0.08980  Biso   1.000  Ta
  Ta3      1.0000 0.07306  0.14358  0.07820  Biso   1.000  Ta
  Ta4      1.0000 0.08466  0.64358  0.08980  Biso   1.000  Ta
  O1       1.0000 0.07455  0.00000  0.58000  Biso   1.000  O
  O2       1.0000 0.08976  0.50000  0.58800  Biso   1.000  O
  O3       1.0000 0.57595  0.00000  0.07640  Biso   1.000  O
  O4       1.0000 0.58395  0.50000  0.09160  Biso   1.000  O
  O5       1.0000 0.07557  0.93488  0.07936  Biso   1.000  O
  O6       1.0000 0.08485  0.43488  0.08864  Biso   1.000  O
  O7       1.0000 0.07557  0.06512  0.07936  Biso   1.000  O
  O8       1.0000 0.08485  0.56512  0.08864  Biso   1.000  O
  O9       1.0000 0.07637  0.86882  0.58160  Biso   1.000  O
  O10      1.0000 0.08202  0.36882  0.58640  Biso   1.000  O
  O11      1.0000 0.07637  0.13118  0.58160  Biso   1.000  O
  O12      1.0000 0.08202  0.63118  0.58640  Biso   1.000  O
  O13      1.0000 0.57652  0.13118  0.08117  Biso   1.000  O
  O14      1.0000 0.58132  0.63118  0.08683  Biso   1.000  O
  O15      1.0000 0.57652  0.86882  0.08117  Biso   1.000  O
  O16      1.0000 0.58132  0.36882  0.08683  Biso   1.000  O
  O17      1.0000 0.07593  0.79813  0.08160  Biso   1.000  O
  O18      1.0000 0.08074  0.29813  0.08640  Biso   1.000  O
  O19      1.0000 0.07593  0.20187  0.08160  Biso   1.000  O
  O20      1.0000 0.08074  0.70187  0.08640  Biso   1.000  O
