data_image0
_cell_length_a       15.6806
_cell_length_b       15.6806
_cell_length_c       3.9264
_cell_angle_alpha    90
_cell_angle_beta     90
_cell_angle_gamma    150.998

_symmetry_space_group_name_H-M    "P 1"
_symmetry_int_tables_number       1

loop_
  _symmetry_equiv_pos_as_xyz
  'x, y, z'

loop_
  _atom_site_label
  _atom_site_occupancy
  _atom_site_fract_x
  _atom_site_fract_y
  _atom_site_fract_z
  _atom_site_thermal_displace_type
  _atom_site_B_iso_or_equiv
  _atom_site_type_symbol
  K1       1.0000 0.94914  0.46686  0.58400  Biso   1.000  K
  K2       1.0000 0.46686  0.94914  0.58400  Biso   1.000  K
  Pb1      1.0000 0.78483  0.63911  0.57606  Biso   1.000  Pb
  Pb2      1.0000 0.28585  0.13809  0.57606  Biso   1.000  Pb
  Pb3      1.0000 0.13809  0.28585  0.57606  Biso   1.000  Pb
  Pb4      1.0000 0.63911  0.78483  0.57606  Biso   1.000  Pb
  Nb1      1.0000 0.96216  0.96216  0.07622  Biso   1.000  Nb
  Nb2      1.0000 0.46162  0.46162  0.07622  Biso   1.000  Nb
  Ta1      1.0000 0.10336  0.81620  0.07886  Biso   1.000  Ta
  Ta2      1.0000 0.60494  0.31778  0.07886  Biso   1.000  Ta
  Ta3      1.0000 0.81620  0.10336  0.07886  Biso   1.000  Ta
  Ta4      1.0000 0.31778  0.60494  0.07886  Biso   1.000  Ta
  O1       1.0000 0.71003  0.71003  0.08215  Biso   1.000  O
  O2       1.0000 0.21003  0.21003  0.08215  Biso   1.000  O
  O3       1.0000 0.95881  0.95881  0.57995  Biso   1.000  O
  O4       1.0000 0.45904  0.45904  0.57995  Biso   1.000  O
  O5       1.0000 0.02592  0.89568  0.08021  Biso   1.000  O
  O6       1.0000 0.52412  0.39388  0.08021  Biso   1.000  O
  O7       1.0000 0.89568  0.02592  0.08021  Biso   1.000  O
  O8       1.0000 0.39388  0.52412  0.08021  Biso   1.000  O
  O9       1.0000 0.83984  0.58124  0.07920  Biso   1.000  O
  O10      1.0000 0.34360  0.07748  0.07920  Biso   1.000  O
  O11      1.0000 0.07748  0.34360  0.07920  Biso   1.000  O
  O12      1.0000 0.58124  0.83984  0.07920  Biso   1.000  O
  O13      1.0000 0.82902  0.09138  0.57892  Biso   1.000  O
  O14      1.0000 0.32943  0.59179  0.57892  Biso   1.000  O
  O15      1.0000 0.09138  0.82902  0.57892  Biso   1.000  O
  O16      1.0000 0.59179  0.32943  0.57892  Biso   1.000  O
  O17      1.0000 0.15928  0.75554  0.07834  Biso   1.000  O
  O18      1.0000 0.66612  0.26238  0.07834  Biso   1.000  O
  O19      1.0000 0.75554  0.15928  0.07834  Biso   1.000  O
  O20      1.0000 0.26238  0.66612  0.07834  Biso   1.000  O
