data_image0
_cell_length_a       3.9264
_cell_length_b       15.6806
_cell_length_c       15.6806
_cell_angle_alpha    150.998
_cell_angle_beta     90
_cell_angle_gamma    90

_symmetry_space_group_name_H-M    "P 1"
_symmetry_int_tables_number       1

loop_
  _symmetry_equiv_pos_as_xyz
  'x, y, z'

loop_
  _atom_site_label
  _atom_site_occupancy
  _atom_site_fract_x
  _atom_site_fract_y
  _atom_site_fract_z
  _atom_site_thermal_displace_type
  _atom_site_B_iso_or_equiv
  _atom_site_type_symbol
  K1       1.0000 0.47879  0.54200  0.04200  Biso   1.000  K
  K2       1.0000 0.52121  0.04200  0.54200  Biso   1.000  K
  Pb1      1.0000 0.50000  0.36140  0.21466  Biso   1.000  Pb
  Pb2      1.0000 0.50000  0.86140  0.71466  Biso   1.000  Pb
  Pb3      1.0000 0.50000  0.21466  0.36140  Biso   1.000  Pb
  Pb4      1.0000 0.50000  0.71466  0.86140  Biso   1.000  Pb
  Nb1      1.0000 0.00000  0.03811  0.03811  Biso   1.000  Nb
  Nb2      1.0000 0.00000  0.53811  0.53811  Biso   1.000  Nb
  Ta1      1.0000 0.00000  0.18301  0.89585  Biso   1.000  Ta
  Ta2      1.0000 1.00000  0.68301  0.39585  Biso   1.000  Ta
  Ta3      1.0000 1.00000  0.89585  0.18301  Biso   1.000  Ta
  Ta4      1.0000 0.00000  0.39585  0.68301  Biso   1.000  Ta
  O1       1.0000 0.50000  0.04108  0.04108  Biso   1.000  O
  O2       1.0000 0.50000  0.54108  0.54108  Biso   1.000  O
  O3       1.0000 0.00000  0.78997  0.78997  Biso   1.000  O
  O4       1.0000 0.00000  0.28997  0.28997  Biso   1.000  O
  O5       1.0000 0.00000  0.10522  0.97498  Biso   1.000  O
  O6       1.0000 1.00000  0.60522  0.47498  Biso   1.000  O
  O7       1.0000 1.00000  0.97498  0.10522  Biso   1.000  O
  O8       1.0000 0.00000  0.47498  0.60522  Biso   1.000  O
  O9       1.0000 0.50000  0.17078  0.90842  Biso   1.000  O
  O10      1.0000 0.50000  0.67078  0.40842  Biso   1.000  O
  O11      1.0000 0.50000  0.90842  0.17078  Biso   1.000  O
  O12      1.0000 0.50000  0.40842  0.67078  Biso   1.000  O
  O13      1.0000 0.00000  0.65828  0.92064  Biso   1.000  O
  O14      1.0000 1.00000  0.15828  0.42064  Biso   1.000  O
  O15      1.0000 1.00000  0.92064  0.65828  Biso   1.000  O
  O16      1.0000 0.00000  0.42064  0.15828  Biso   1.000  O
  O17      1.0000 0.00000  0.24104  0.83730  Biso   1.000  O
  O18      1.0000 1.00000  0.74104  0.33730  Biso   1.000  O
  O19      1.0000 1.00000  0.83730  0.24104  Biso   1.000  O
  O20      1.0000 0.00000  0.33730  0.74104  Biso   1.000  O
