data_image0
_cell_length_a       15.6806
_cell_length_b       15.6806
_cell_length_c       15.6806
_cell_angle_alpha    29.0021
_cell_angle_beta     159.603
_cell_angle_gamma    159.603

_symmetry_space_group_name_H-M    "P 1"
_symmetry_int_tables_number       1

loop_
  _symmetry_equiv_pos_as_xyz
  'x, y, z'

loop_
  _atom_site_label
  _atom_site_occupancy
  _atom_site_fract_x
  _atom_site_fract_y
  _atom_site_fract_z
  _atom_site_thermal_displace_type
  _atom_site_B_iso_or_equiv
  _atom_site_type_symbol
  K1       1.0000 0.83400  0.83400  0.00000  Biso   1.000  K
  K2       1.0000 0.83400  0.33400  0.50000  Biso   1.000  K
  Pb1      1.0000 0.82606  0.64943  0.82337  Biso   1.000  Pb
  Pb2      1.0000 0.82606  0.14943  0.32337  Biso   1.000  Pb
  Pb3      1.0000 0.82606  0.00269  0.17663  Biso   1.000  Pb
  Pb4      1.0000 0.82606  0.50269  0.67663  Biso   1.000  Pb
  Nb1      1.0000 0.32622  0.07622  0.75000  Biso   1.000  Nb
  Nb2      1.0000 0.32622  0.57622  0.25000  Biso   1.000  Nb
  Ta1      1.0000 0.32886  0.22244  0.89358  Biso   1.000  Ta
  Ta2      1.0000 0.32886  0.72244  0.39358  Biso   1.000  Ta
  Ta3      1.0000 0.32886  0.93528  0.60642  Biso   1.000  Ta
  Ta4      1.0000 0.32886  0.43528  0.10642  Biso   1.000  Ta
  O1       1.0000 0.34715  0.33855  0.50860  Biso   1.000  O
  O2       1.0000 0.31715  0.82355  0.99360  Biso   1.000  O
  O3       1.0000 0.82995  0.83855  0.49140  Biso   1.000  O
  O4       1.0000 0.82995  0.32355  0.00640  Biso   1.000  O
  O5       1.0000 0.33021  0.14533  0.81512  Biso   1.000  O
  O6       1.0000 0.33021  0.64533  0.31512  Biso   1.000  O
  O7       1.0000 0.33021  0.01509  0.68488  Biso   1.000  O
  O8       1.0000 0.33021  0.51509  0.18488  Biso   1.000  O
  O9       1.0000 0.32899  0.46013  0.63121  Biso   1.000  O
  O10      1.0000 0.32941  0.96034  0.13142  Biso   1.000  O
  O11      1.0000 0.32941  0.69798  0.86906  Biso   1.000  O
  O12      1.0000 0.32899  0.19777  0.36885  Biso   1.000  O
  O13      1.0000 0.82892  0.69777  0.36879  Biso   1.000  O
  O14      1.0000 0.82892  0.19798  0.86858  Biso   1.000  O
  O15      1.0000 0.82892  0.96013  0.63115  Biso   1.000  O
  O16      1.0000 0.82892  0.46034  0.13094  Biso   1.000  O
  O17      1.0000 0.32834  0.28021  0.95187  Biso   1.000  O
  O18      1.0000 0.32834  0.78021  0.45187  Biso   1.000  O
  O19      1.0000 0.32834  0.87647  0.54813  Biso   1.000  O
  O20      1.0000 0.32834  0.37647  0.04813  Biso   1.000  O
