data_image0
_cell_length_a       5.55277
_cell_length_b       30.3622
_cell_length_c       5.55277
_cell_angle_alpha    90
_cell_angle_beta     90
_cell_angle_gamma    90

_symmetry_space_group_name_H-M    "P 1"
_symmetry_int_tables_number       1

loop_
  _symmetry_equiv_pos_as_xyz
  'x, y, z'

loop_
  _atom_site_label
  _atom_site_occupancy
  _atom_site_fract_x
  _atom_site_fract_y
  _atom_site_fract_z
  _atom_site_thermal_displace_type
  _atom_site_B_iso_or_equiv
  _atom_site_type_symbol
  K1       1.0000 0.00000  0.50000  0.00000  Biso   1.000  K
  K2       1.0000 0.00000  0.00000  0.00000  Biso   1.000  K
  K3       1.0000 0.50000  0.50000  0.50000  Biso   1.000  K
  K4       1.0000 0.50000  0.00000  0.50000  Biso   1.000  K
  Pb1      1.0000 0.00089  0.67663  0.00000  Biso   1.000  Pb
  Pb2      1.0000 0.99911  0.17663  0.00000  Biso   1.000  Pb
  Pb3      1.0000 0.50089  0.67663  0.50000  Biso   1.000  Pb
  Pb4      1.0000 0.49911  0.17663  0.50000  Biso   1.000  Pb
  Pb5      1.0000 0.50089  0.82337  0.50000  Biso   1.000  Pb
  Pb6      1.0000 0.49911  0.32337  0.50000  Biso   1.000  Pb
  Pb7      1.0000 0.00089  0.82337  0.00000  Biso   1.000  Pb
  Pb8      1.0000 0.99911  0.32337  0.00000  Biso   1.000  Pb
  Nb1      1.0000 0.49955  0.75000  0.00000  Biso   1.000  Nb
  Nb2      1.0000 0.50045  0.25000  0.00000  Biso   1.000  Nb
  Nb3      1.0000 0.99955  0.75000  0.50000  Biso   1.000  Nb
  Nb4      1.0000 0.00045  0.25000  0.50000  Biso   1.000  Nb
  Ta1      1.0000 0.50580  0.60642  0.00000  Biso   1.000  Ta
  Ta2      1.0000 0.49420  0.10642  0.00000  Biso   1.000  Ta
  Ta3      1.0000 0.00580  0.60642  0.50000  Biso   1.000  Ta
  Ta4      1.0000 0.99420  0.10642  0.50000  Biso   1.000  Ta
  Ta5      1.0000 0.50580  0.89358  0.00000  Biso   1.000  Ta
  Ta6      1.0000 0.49420  0.39358  0.00000  Biso   1.000  Ta
  Ta7      1.0000 0.00580  0.89358  0.50000  Biso   1.000  Ta
  Ta8      1.0000 0.99420  0.39358  0.50000  Biso   1.000  Ta
  O1       1.0000 0.24830  0.75000  0.75570  Biso   1.000  O
  O2       1.0000 0.23670  0.25000  0.75930  Biso   1.000  O
  O3       1.0000 0.76330  0.75000  0.24070  Biso   1.000  O
  O4       1.0000 0.75170  0.25000  0.24430  Biso   1.000  O
  O5       1.0000 0.74830  0.75000  0.74430  Biso   1.000  O
  O6       1.0000 0.73670  0.25000  0.74070  Biso   1.000  O
  O7       1.0000 0.26330  0.75000  0.25930  Biso   1.000  O
  O8       1.0000 0.25170  0.25000  0.25570  Biso   1.000  O
  O9       1.0000 0.50464  0.68488  0.00000  Biso   1.000  O
  O10      1.0000 0.49536  0.18488  0.00000  Biso   1.000  O
  O11      1.0000 0.00464  0.68488  0.50000  Biso   1.000  O
  O12      1.0000 0.99536  0.18488  0.50000  Biso   1.000  O
  O13      1.0000 0.50464  0.81512  0.00000  Biso   1.000  O
  O14      1.0000 0.49536  0.31512  0.00000  Biso   1.000  O
  O15      1.0000 0.00464  0.81512  0.50000  Biso   1.000  O
  O16      1.0000 0.99536  0.31512  0.50000  Biso   1.000  O
  O17      1.0000 0.25272  0.61882  0.74968  Biso   1.000  O
  O18      1.0000 0.24749  0.11882  0.75011  Biso   1.000  O
  O19      1.0000 0.75251  0.61882  0.24989  Biso   1.000  O
  O20      1.0000 0.74728  0.11882  0.25032  Biso   1.000  O
  O21      1.0000 0.75251  0.88118  0.24989  Biso   1.000  O
  O22      1.0000 0.74728  0.38118  0.25032  Biso   1.000  O
  O23      1.0000 0.25272  0.88118  0.74968  Biso   1.000  O
  O24      1.0000 0.24749  0.38118  0.75011  Biso   1.000  O
  O25      1.0000 0.75272  0.88118  0.75032  Biso   1.000  O
  O26      1.0000 0.74749  0.38118  0.74989  Biso   1.000  O
  O27      1.0000 0.25251  0.88118  0.25011  Biso   1.000  O
  O28      1.0000 0.24728  0.38118  0.24968  Biso   1.000  O
  O29      1.0000 0.75272  0.61882  0.75032  Biso   1.000  O
  O30      1.0000 0.74749  0.11882  0.74989  Biso   1.000  O
  O31      1.0000 0.25251  0.61882  0.25011  Biso   1.000  O
  O32      1.0000 0.24728  0.11882  0.24968  Biso   1.000  O
  O33      1.0000 0.50240  0.54813  0.00000  Biso   1.000  O
  O34      1.0000 0.49760  0.04813  0.00000  Biso   1.000  O
  O35      1.0000 0.00240  0.54813  0.50000  Biso   1.000  O
  O36      1.0000 0.99760  0.04813  0.50000  Biso   1.000  O
  O37      1.0000 0.50240  0.95187  0.00000  Biso   1.000  O
  O38      1.0000 0.49760  0.45187  0.00000  Biso   1.000  O
  O39      1.0000 0.00240  0.95187  0.50000  Biso   1.000  O
  O40      1.0000 0.99760  0.45187  0.50000  Biso   1.000  O
