data_image0
_cell_length_a       7.8528
_cell_length_b       15.1811
_cell_length_c       7.8528
_cell_angle_alpha    90
_cell_angle_beta     90
_cell_angle_gamma    90

_symmetry_space_group_name_H-M    "P 1"
_symmetry_int_tables_number       1

loop_
  _symmetry_equiv_pos_as_xyz
  'x, y, z'

loop_
  _atom_site_label
  _atom_site_occupancy
  _atom_site_fract_x
  _atom_site_fract_y
  _atom_site_fract_z
  _atom_site_thermal_displace_type
  _atom_site_B_iso_or_equiv
  _atom_site_type_symbol
  K1       1.0000 0.25000  0.51172  0.25000  Biso   1.000  K
  K2       1.0000 0.75000  0.51172  0.25000  Biso   1.000  K
  K3       1.0000 0.25000  0.48828  0.75000  Biso   1.000  K
  K4       1.0000 0.75000  0.48828  0.75000  Biso   1.000  K
  Pb1      1.0000 0.24765  0.14766  0.25235  Biso   1.000  Pb
  Pb2      1.0000 0.75235  0.14766  0.24765  Biso   1.000  Pb
  Pb3      1.0000 0.25235  0.14582  0.74765  Biso   1.000  Pb
  Pb4      1.0000 0.74765  0.14582  0.75235  Biso   1.000  Pb
  Pb5      1.0000 0.74765  0.85418  0.25235  Biso   1.000  Pb
  Pb6      1.0000 0.25235  0.85418  0.24765  Biso   1.000  Pb
  Pb7      1.0000 0.75235  0.85234  0.74765  Biso   1.000  Pb
  Pb8      1.0000 0.24765  0.85234  0.75235  Biso   1.000  Pb
  Nb1      1.0000 0.00000  0.00000  0.00000  Biso   1.000  Nb
  Nb2      1.0000 0.50000  0.00000  0.00000  Biso   1.000  Nb
  Nb3      1.0000 0.00000  0.00000  0.50000  Biso   1.000  Nb
  Nb4      1.0000 0.50000  0.00000  0.50000  Biso   1.000  Nb
  Ta1      1.0000 0.00053  0.28716  0.99874  Biso   1.000  Ta
  Ta2      1.0000 0.49947  0.28716  0.99979  Biso   1.000  Ta
  Ta3      1.0000 0.99947  0.28716  0.50126  Biso   1.000  Ta
  Ta4      1.0000 0.50053  0.28716  0.50021  Biso   1.000  Ta
  Ta5      1.0000 0.99947  0.71284  0.00126  Biso   1.000  Ta
  Ta6      1.0000 0.50053  0.71284  0.00021  Biso   1.000  Ta
  Ta7      1.0000 0.00053  0.71284  0.49874  Biso   1.000  Ta
  Ta8      1.0000 0.49947  0.71284  0.49979  Biso   1.000  Ta
  O1       1.0000 0.25000  0.00661  0.00000  Biso   1.000  O
  O2       1.0000 0.75000  0.99339  1.00000  Biso   1.000  O
  O3       1.0000 0.25000  0.99339  0.50000  Biso   1.000  O
  O4       1.0000 0.75000  0.00661  0.50000  Biso   1.000  O
  O5       1.0000 0.00000  0.01305  0.75000  Biso   1.000  O
  O6       1.0000 0.50000  0.99984  0.75000  Biso   1.000  O
  O7       1.0000 0.00000  0.98695  0.25000  Biso   1.000  O
  O8       1.0000 0.50000  0.00016  0.25000  Biso   1.000  O
  O9       1.0000 0.99685  0.13024  0.00607  Biso   1.000  O
  O10      1.0000 0.50315  0.13024  0.99976  Biso   1.000  O
  O11      1.0000 0.00315  0.13024  0.49393  Biso   1.000  O
  O12      1.0000 0.49685  0.13024  0.50024  Biso   1.000  O
  O13      1.0000 0.00315  0.86976  0.99393  Biso   1.000  O
  O14      1.0000 0.49685  0.86976  0.00024  Biso   1.000  O
  O15      1.0000 0.99685  0.86976  0.50607  Biso   1.000  O
  O16      1.0000 0.50315  0.86976  0.49976  Biso   1.000  O
  O17      1.0000 0.25000  0.25865  0.99963  Biso   1.000  O
  O18      1.0000 0.75000  0.26607  0.99963  Biso   1.000  O
  O19      1.0000 0.25000  0.26607  0.50037  Biso   1.000  O
  O20      1.0000 0.75000  0.25865  0.50037  Biso   1.000  O
  O21      1.0000 0.75000  0.74135  0.00037  Biso   1.000  O
  O22      1.0000 0.25000  0.73393  0.00037  Biso   1.000  O
  O23      1.0000 0.75000  0.73393  0.49963  Biso   1.000  O
  O24      1.0000 0.25000  0.74135  0.49963  Biso   1.000  O
  O25      1.0000 0.00000  0.72790  0.75000  Biso   1.000  O
  O26      1.0000 0.50000  0.73532  0.75000  Biso   1.000  O
  O27      1.0000 0.00000  0.74738  0.25000  Biso   1.000  O
  O28      1.0000 0.50000  0.73996  0.25000  Biso   1.000  O
  O29      1.0000 0.00000  0.25262  0.75000  Biso   1.000  O
  O30      1.0000 0.50000  0.26004  0.75000  Biso   1.000  O
  O31      1.0000 0.00000  0.27210  0.25000  Biso   1.000  O
  O32      1.0000 0.50000  0.26468  0.25000  Biso   1.000  O
  O33      1.0000 0.00187  0.40374  0.99421  Biso   1.000  O
  O34      1.0000 0.49813  0.40374  0.99795  Biso   1.000  O
  O35      1.0000 0.99813  0.40374  0.50579  Biso   1.000  O
  O36      1.0000 0.50187  0.40374  0.50205  Biso   1.000  O
  O37      1.0000 0.99813  0.59626  0.00579  Biso   1.000  O
  O38      1.0000 0.50187  0.59626  0.00205  Biso   1.000  O
  O39      1.0000 0.00187  0.59626  0.49421  Biso   1.000  O
  O40      1.0000 0.49813  0.59626  0.49795  Biso   1.000  O
