data_image0
_cell_length_a       15.1811
_cell_length_b       5.55277
_cell_length_c       5.55277
_cell_angle_alpha    90
_cell_angle_beta     90
_cell_angle_gamma    90

_symmetry_space_group_name_H-M    "P 1"
_symmetry_int_tables_number       1

loop_
  _symmetry_equiv_pos_as_xyz
  'x, y, z'

loop_
  _atom_site_label
  _atom_site_occupancy
  _atom_site_fract_x
  _atom_site_fract_y
  _atom_site_fract_z
  _atom_site_thermal_displace_type
  _atom_site_B_iso_or_equiv
  _atom_site_type_symbol
  K1       1.0000 0.50000  0.50000  0.00000  Biso   1.000  K
  K2       1.0000 0.50000  0.00000  0.50000  Biso   1.000  K
  Pb1      1.0000 0.85326  0.49928  0.99928  Biso   1.000  Pb
  Pb2      1.0000 0.85326  0.00866  0.50866  Biso   1.000  Pb
  Pb3      1.0000 0.14674  0.99928  0.49928  Biso   1.000  Pb
  Pb4      1.0000 0.14674  0.50866  0.00866  Biso   1.000  Pb
  Nb1      1.0000 0.00000  0.00389  0.00389  Biso   1.000  Nb
  Nb2      1.0000 0.00000  0.50389  0.50389  Biso   1.000  Nb
  Ta1      1.0000 0.71284  0.00152  0.00362  Biso   1.000  Ta
  Ta2      1.0000 0.71284  0.50362  0.50152  Biso   1.000  Ta
  Ta3      1.0000 0.28716  0.00362  0.00152  Biso   1.000  Ta
  Ta4      1.0000 0.28716  0.50152  0.50362  Biso   1.000  Ta
  O1       1.0000 0.98678  0.75092  0.25092  Biso   1.000  O
  O2       1.0000 0.01322  0.25092  0.75092  Biso   1.000  O
  O3       1.0000 0.00000  0.25203  0.25203  Biso   1.000  O
  O4       1.0000 0.00000  0.75203  0.75203  Biso   1.000  O
  O5       1.0000 0.86976  0.00821  0.99559  Biso   1.000  O
  O6       1.0000 0.86976  0.49559  0.50821  Biso   1.000  O
  O7       1.0000 0.13024  0.99559  0.00821  Biso   1.000  O
  O8       1.0000 0.13024  0.50821  0.49559  Biso   1.000  O
  O9       1.0000 0.74505  0.75240  0.25240  Biso   1.000  O
  O10      1.0000 0.73023  0.25240  0.75240  Biso   1.000  O
  O11      1.0000 0.25495  0.25240  0.75240  Biso   1.000  O
  O12      1.0000 0.26977  0.75240  0.25240  Biso   1.000  O
  O13      1.0000 0.26236  0.25254  0.25254  Biso   1.000  O
  O14      1.0000 0.26236  0.75254  0.75254  Biso   1.000  O
  O15      1.0000 0.73764  0.25254  0.25254  Biso   1.000  O
  O16      1.0000 0.73764  0.75254  0.75254  Biso   1.000  O
  O17      1.0000 0.59626  0.99910  0.00657  Biso   1.000  O
  O18      1.0000 0.59626  0.50657  0.49910  Biso   1.000  O
  O19      1.0000 0.40374  0.00657  0.99910  Biso   1.000  O
  O20      1.0000 0.40374  0.49910  0.50657  Biso   1.000  O
