data_image0
_cell_length_a       7.8528
_cell_length_b       7.8528
_cell_length_c       15.1811
_cell_angle_alpha    90
_cell_angle_beta     90
_cell_angle_gamma    90

_symmetry_space_group_name_H-M    "P 1"
_symmetry_int_tables_number       1

loop_
  _symmetry_equiv_pos_as_xyz
  'x, y, z'

loop_
  _atom_site_label
  _atom_site_occupancy
  _atom_site_fract_x
  _atom_site_fract_y
  _atom_site_fract_z
  _atom_site_thermal_displace_type
  _atom_site_B_iso_or_equiv
  _atom_site_type_symbol
  K1       1.0000 0.25000  0.25000  0.48828  Biso   1.000  K
  K2       1.0000 0.75000  0.25000  0.51172  Biso   1.000  K
  K3       1.0000 0.25000  0.75000  0.48828  Biso   1.000  K
  K4       1.0000 0.75000  0.75000  0.51172  Biso   1.000  K
  Pb1      1.0000 0.25000  0.25469  0.85234  Biso   1.000  Pb
  Pb2      1.0000 0.75000  0.24531  0.85418  Biso   1.000  Pb
  Pb3      1.0000 0.25000  0.74531  0.85234  Biso   1.000  Pb
  Pb4      1.0000 0.75000  0.75469  0.85418  Biso   1.000  Pb
  Pb5      1.0000 0.75000  0.25469  0.14766  Biso   1.000  Pb
  Pb6      1.0000 0.25000  0.24531  0.14582  Biso   1.000  Pb
  Pb7      1.0000 0.75000  0.74531  0.14766  Biso   1.000  Pb
  Pb8      1.0000 0.25000  0.75469  0.14582  Biso   1.000  Pb
  Nb1      1.0000 0.00000  0.00000  0.00000  Biso   1.000  Nb
  Nb2      1.0000 0.50000  0.00000  0.00000  Biso   1.000  Nb
  Nb3      1.0000 0.00000  0.50000  0.00000  Biso   1.000  Nb
  Nb4      1.0000 0.50000  0.50000  0.00000  Biso   1.000  Nb
  Ta1      1.0000 0.00032  0.00000  0.71284  Biso   1.000  Ta
  Ta2      1.0000 0.49968  0.00000  0.71284  Biso   1.000  Ta
  Ta3      1.0000 0.99821  0.50000  0.71284  Biso   1.000  Ta
  Ta4      1.0000 0.50179  0.50000  0.71284  Biso   1.000  Ta
  Ta5      1.0000 0.99968  0.00000  0.28716  Biso   1.000  Ta
  Ta6      1.0000 0.50032  0.00000  0.28716  Biso   1.000  Ta
  Ta7      1.0000 0.00179  0.50000  0.28716  Biso   1.000  Ta
  Ta8      1.0000 0.49821  0.50000  0.28716  Biso   1.000  Ta
  O1       1.0000 0.25000  0.00000  0.99323  Biso   1.000  O
  O2       1.0000 0.75000  0.00000  0.00677  Biso   1.000  O
  O3       1.0000 0.25000  0.50000  0.01967  Biso   1.000  O
  O4       1.0000 0.75000  0.50000  0.98033  Biso   1.000  O
  O5       1.0000 0.00000  0.75000  0.00000  Biso   1.000  O
  O6       1.0000 0.50000  0.75000  0.00000  Biso   1.000  O
  O7       1.0000 0.00000  0.25000  0.00000  Biso   1.000  O
  O8       1.0000 0.50000  0.25000  0.00000  Biso   1.000  O
  O9       1.0000 0.99661  0.00000  0.86976  Biso   1.000  O
  O10      1.0000 0.50339  0.00000  0.86976  Biso   1.000  O
  O11      1.0000 0.00923  0.50000  0.86976  Biso   1.000  O
  O12      1.0000 0.49077  0.50000  0.86976  Biso   1.000  O
  O13      1.0000 0.00339  0.00000  0.13024  Biso   1.000  O
  O14      1.0000 0.49661  0.00000  0.13024  Biso   1.000  O
  O15      1.0000 0.99077  0.50000  0.13024  Biso   1.000  O
  O16      1.0000 0.50923  0.50000  0.13024  Biso   1.000  O
  O17      1.0000 0.25000  0.00000  0.73902  Biso   1.000  O
  O18      1.0000 0.75000  0.00000  0.73626  Biso   1.000  O
  O19      1.0000 0.25000  0.50000  0.72420  Biso   1.000  O
  O20      1.0000 0.75000  0.50000  0.75108  Biso   1.000  O
  O21      1.0000 0.75000  0.00000  0.26098  Biso   1.000  O
  O22      1.0000 0.25000  0.00000  0.26374  Biso   1.000  O
  O23      1.0000 0.75000  0.50000  0.27580  Biso   1.000  O
  O24      1.0000 0.25000  0.50000  0.24892  Biso   1.000  O
  O25      1.0000 0.00037  0.75000  0.26236  Biso   1.000  O
  O26      1.0000 0.49963  0.75000  0.26236  Biso   1.000  O
  O27      1.0000 0.00037  0.25000  0.26236  Biso   1.000  O
  O28      1.0000 0.49963  0.25000  0.26236  Biso   1.000  O
  O29      1.0000 0.99963  0.75000  0.73764  Biso   1.000  O
  O30      1.0000 0.50037  0.75000  0.73764  Biso   1.000  O
  O31      1.0000 0.99963  0.25000  0.73764  Biso   1.000  O
  O32      1.0000 0.50037  0.25000  0.73764  Biso   1.000  O
  O33      1.0000 0.99981  0.00000  0.59626  Biso   1.000  O
  O34      1.0000 0.50019  0.00000  0.59626  Biso   1.000  O
  O35      1.0000 0.99235  0.50000  0.59626  Biso   1.000  O
  O36      1.0000 0.50765  0.50000  0.59626  Biso   1.000  O
  O37      1.0000 0.00019  0.00000  0.40374  Biso   1.000  O
  O38      1.0000 0.49981  0.00000  0.40374  Biso   1.000  O
  O39      1.0000 0.00765  0.50000  0.40374  Biso   1.000  O
  O40      1.0000 0.49235  0.50000  0.40374  Biso   1.000  O
