data_image0
_cell_length_a       5.55277
_cell_length_b       15.1811
_cell_length_c       5.55277
_cell_angle_alpha    90
_cell_angle_beta     90
_cell_angle_gamma    90

_symmetry_space_group_name_H-M    "P 1"
_symmetry_int_tables_number       1

loop_
  _symmetry_equiv_pos_as_xyz
  'x, y, z'

loop_
  _atom_site_label
  _atom_site_occupancy
  _atom_site_fract_x
  _atom_site_fract_y
  _atom_site_fract_z
  _atom_site_thermal_displace_type
  _atom_site_B_iso_or_equiv
  _atom_site_type_symbol
  K1       1.0000 0.25000  0.50000  0.76129  Biso   1.000  K
  K2       1.0000 0.75000  0.50000  0.23871  Biso   1.000  K
  Pb1      1.0000 0.25469  0.14674  0.75096  Biso   1.000  Pb
  Pb2      1.0000 0.74531  0.14674  0.24904  Biso   1.000  Pb
  Pb3      1.0000 0.75469  0.85326  0.25842  Biso   1.000  Pb
  Pb4      1.0000 0.24531  0.85326  0.74158  Biso   1.000  Pb
  Nb1      1.0000 0.75000  0.00000  0.75000  Biso   1.000  Nb
  Nb2      1.0000 0.25000  0.00000  0.25000  Biso   1.000  Nb
  Ta1      1.0000 0.75105  0.28716  0.75069  Biso   1.000  Ta
  Ta2      1.0000 0.24895  0.28716  0.24931  Biso   1.000  Ta
  Ta3      1.0000 0.74895  0.71284  0.75280  Biso   1.000  Ta
  Ta4      1.0000 0.25105  0.71284  0.24720  Biso   1.000  Ta
  O1       1.0000 0.00000  0.01322  0.50000  Biso   1.000  O
  O2       1.0000 0.50000  0.98678  0.00000  Biso   1.000  O
  O3       1.0000 0.50000  1.00000  0.50000  Biso   1.000  O
  O4       1.0000 0.00000  0.00000  0.00000  Biso   1.000  O
  O5       1.0000 0.74369  0.13024  0.75458  Biso   1.000  O
  O6       1.0000 0.25631  0.13024  0.24542  Biso   1.000  O
  O7       1.0000 0.75631  0.86976  0.74196  Biso   1.000  O
  O8       1.0000 0.24369  0.86976  0.25804  Biso   1.000  O
  O9       1.0000 0.00000  0.25755  0.50000  Biso   1.000  O
  O10      1.0000 0.50000  0.26717  0.00000  Biso   1.000  O
  O11      1.0000 0.50000  0.74766  0.00000  Biso   1.000  O
  O12      1.0000 0.00000  0.72762  0.50000  Biso   1.000  O
  O13      1.0000 0.50000  0.73503  0.50000  Biso   1.000  O
  O14      1.0000 0.00000  0.74025  0.00000  Biso   1.000  O
  O15      1.0000 0.50000  0.26497  0.50000  Biso   1.000  O
  O16      1.0000 0.00000  0.25975  0.00000  Biso   1.000  O
  O17      1.0000 0.75373  0.40374  0.75096  Biso   1.000  O
  O18      1.0000 0.24627  0.40374  0.24904  Biso   1.000  O
  O19      1.0000 0.74627  0.59626  0.75842  Biso   1.000  O
  O20      1.0000 0.25373  0.59626  0.24158  Biso   1.000  O
