data_image0
_cell_length_a       16.1647
_cell_length_b       16.1647
_cell_length_c       16.1647
_cell_angle_alpha    151.885
_cell_angle_beta     151.885
_cell_angle_gamma    40.1819

_symmetry_space_group_name_H-M    "P 1"
_symmetry_int_tables_number       1

loop_
  _symmetry_equiv_pos_as_xyz
  'x, y, z'

loop_
  _atom_site_label
  _atom_site_occupancy
  _atom_site_fract_x
  _atom_site_fract_y
  _atom_site_fract_z
  _atom_site_thermal_displace_type
  _atom_site_B_iso_or_equiv
  _atom_site_type_symbol
  K1       1.0000 0.24114  0.24114  0.50000  Biso   1.000  K
  K2       1.0000 0.75886  0.75886  0.50000  Biso   1.000  K
  K3       1.0000 0.75886  0.25886  0.00000  Biso   1.000  K
  K4       1.0000 0.24114  0.74114  0.00000  Biso   1.000  K
  Pb1      1.0000 0.07286  0.07755  0.50469  Biso   1.000  Pb
  Pb2      1.0000 0.57388  0.57857  0.50469  Biso   1.000  Pb
  Pb3      1.0000 0.57388  0.06919  0.99531  Biso   1.000  Pb
  Pb4      1.0000 0.07286  0.56817  0.99531  Biso   1.000  Pb
  Pb5      1.0000 0.42612  0.93081  0.00469  Biso   1.000  Pb
  Pb6      1.0000 0.92714  0.43183  0.00469  Biso   1.000  Pb
  Pb7      1.0000 0.92714  0.92245  0.49531  Biso   1.000  Pb
  Pb8      1.0000 0.42612  0.42143  0.49531  Biso   1.000  Pb
  Nb1      1.0000 0.74973  0.75000  0.99973  Biso   1.000  Nb
  Nb2      1.0000 0.25027  0.25000  0.00027  Biso   1.000  Nb
  Nb3      1.0000 0.25027  0.75000  0.50027  Biso   1.000  Nb
  Nb4      1.0000 0.74973  0.25000  0.49973  Biso   1.000  Nb
  Ta1      1.0000 0.89542  0.89358  0.00184  Biso   1.000  Ta
  Ta2      1.0000 0.39384  0.39358  0.00026  Biso   1.000  Ta
  Ta3      1.0000 0.39174  0.89358  0.49816  Biso   1.000  Ta
  Ta4      1.0000 0.89332  0.39358  0.49974  Biso   1.000  Ta
  Ta5      1.0000 0.60616  0.60642  0.99974  Biso   1.000  Ta
  Ta6      1.0000 0.10458  0.10642  0.99816  Biso   1.000  Ta
  Ta7      1.0000 0.10668  0.60642  0.50026  Biso   1.000  Ta
  Ta8      1.0000 0.60826  0.10642  0.50184  Biso   1.000  Ta
  O1       1.0000 0.00661  0.75661  0.25000  Biso   1.000  O
  O2       1.0000 0.50661  0.25661  0.25000  Biso   1.000  O
  O3       1.0000 0.49339  0.74339  0.75000  Biso   1.000  O
  O4       1.0000 0.99339  0.24339  0.75000  Biso   1.000  O
  O5       1.0000 0.75011  0.50000  0.75011  Biso   1.000  O
  O6       1.0000 0.24989  0.00000  0.74989  Biso   1.000  O
  O7       1.0000 0.24989  0.50000  0.24989  Biso   1.000  O
  O8       1.0000 0.75011  0.00000  0.25011  Biso   1.000  O
  O9       1.0000 0.80791  0.81512  0.99279  Biso   1.000  O
  O10      1.0000 0.30971  0.31512  0.99459  Biso   1.000  O
  O11      1.0000 0.32233  0.81512  0.50721  Biso   1.000  O
  O12      1.0000 0.82053  0.31512  0.50541  Biso   1.000  O
  O13      1.0000 0.69029  0.68488  0.00541  Biso   1.000  O
  O14      1.0000 0.19209  0.18488  0.00721  Biso   1.000  O
  O15      1.0000 0.17947  0.68488  0.49459  Biso   1.000  O
  O16      1.0000 0.67767  0.18488  0.49279  Biso   1.000  O
  O17      1.0000 0.12560  0.87560  0.25000  Biso   1.000  O
  O18      1.0000 0.62935  0.37935  0.25000  Biso   1.000  O
  O19      1.0000 0.63676  0.88676  0.75000  Biso   1.000  O
  O20      1.0000 0.13301  0.38301  0.75000  Biso   1.000  O
  O21      1.0000 0.37065  0.62065  0.75000  Biso   1.000  O
  O22      1.0000 0.87440  0.12440  0.75000  Biso   1.000  O
  O23      1.0000 0.86699  0.61699  0.25000  Biso   1.000  O
  O24      1.0000 0.36324  0.11324  0.25000  Biso   1.000  O
  O25      1.0000 0.61903  0.36882  0.75021  Biso   1.000  O
  O26      1.0000 0.11861  0.86882  0.74979  Biso   1.000  O
  O27      1.0000 0.11861  0.36882  0.24979  Biso   1.000  O
  O28      1.0000 0.61903  0.86882  0.25021  Biso   1.000  O
  O29      1.0000 0.88139  0.63118  0.75021  Biso   1.000  O
  O30      1.0000 0.38097  0.13118  0.74979  Biso   1.000  O
  O31      1.0000 0.38097  0.63118  0.24979  Biso   1.000  O
  O32      1.0000 0.88139  0.13118  0.25021  Biso   1.000  O
  O33      1.0000 0.95902  0.95187  0.00715  Biso   1.000  O
  O34      1.0000 0.45218  0.45187  0.00031  Biso   1.000  O
  O35      1.0000 0.44472  0.95187  0.49285  Biso   1.000  O
  O36      1.0000 0.95156  0.45187  0.49969  Biso   1.000  O
  O37      1.0000 0.54782  0.54813  0.99969  Biso   1.000  O
  O38      1.0000 0.04098  0.04813  0.99285  Biso   1.000  O
  O39      1.0000 0.04844  0.54813  0.50031  Biso   1.000  O
  O40      1.0000 0.55528  0.04813  0.50715  Biso   1.000  O
