data_image0
_cell_length_a       16.1647
_cell_length_b       16.1647
_cell_length_c       16.1647
_cell_angle_alpha    151.885
_cell_angle_beta     40.1819
_cell_angle_gamma    151.885

_symmetry_space_group_name_H-M    "P 1"
_symmetry_int_tables_number       1

loop_
  _symmetry_equiv_pos_as_xyz
  'x, y, z'

loop_
  _atom_site_label
  _atom_site_occupancy
  _atom_site_fract_x
  _atom_site_fract_y
  _atom_site_fract_z
  _atom_site_thermal_displace_type
  _atom_site_B_iso_or_equiv
  _atom_site_type_symbol
  K1       1.0000 0.75000  0.48939  0.23939  Biso   1.000  K
  K2       1.0000 0.25000  0.51061  0.76061  Biso   1.000  K
  K3       1.0000 0.25000  0.01061  0.26061  Biso   1.000  K
  K4       1.0000 0.75000  0.98939  0.73939  Biso   1.000  K
  Pb1      1.0000 0.57337  0.50469  0.07806  Biso   1.000  Pb
  Pb2      1.0000 0.07337  0.50469  0.57806  Biso   1.000  Pb
  Pb3      1.0000 0.07337  0.99531  0.06868  Biso   1.000  Pb
  Pb4      1.0000 0.57337  0.99531  0.56868  Biso   1.000  Pb
  Pb5      1.0000 0.92663  0.00469  0.93132  Biso   1.000  Pb
  Pb6      1.0000 0.42663  0.00469  0.43132  Biso   1.000  Pb
  Pb7      1.0000 0.42663  0.49531  0.92194  Biso   1.000  Pb
  Pb8      1.0000 0.92663  0.49531  0.42194  Biso   1.000  Pb
  Nb1      1.0000 0.75000  0.50000  0.75000  Biso   1.000  Nb
  Nb2      1.0000 0.25000  0.50000  0.25000  Biso   1.000  Nb
  Nb3      1.0000 0.25000  0.00000  0.75000  Biso   1.000  Nb
  Nb4      1.0000 0.75000  0.00000  0.25000  Biso   1.000  Nb
  Ta1      1.0000 0.89253  0.49895  0.89358  Biso   1.000  Ta
  Ta2      1.0000 0.39253  0.49895  0.39358  Biso   1.000  Ta
  Ta3      1.0000 0.39463  0.00105  0.89358  Biso   1.000  Ta
  Ta4      1.0000 0.89463  0.00105  0.39358  Biso   1.000  Ta
  Ta5      1.0000 0.60747  0.50105  0.60642  Biso   1.000  Ta
  Ta6      1.0000 0.10747  0.50105  0.10642  Biso   1.000  Ta
  Ta7      1.0000 0.10537  0.99895  0.60642  Biso   1.000  Ta
  Ta8      1.0000 0.60537  0.99895  0.10642  Biso   1.000  Ta
  O1       1.0000 0.50661  0.25000  0.75661  Biso   1.000  O
  O2       1.0000 0.00661  0.25000  0.25661  Biso   1.000  O
  O3       1.0000 0.99339  0.75000  0.74339  Biso   1.000  O
  O4       1.0000 0.49339  0.75000  0.24339  Biso   1.000  O
  O5       1.0000 0.75000  0.25000  0.50000  Biso   1.000  O
  O6       1.0000 0.25000  0.25000  0.00000  Biso   1.000  O
  O7       1.0000 0.25000  0.75000  0.50000  Biso   1.000  O
  O8       1.0000 0.75000  0.75000  0.00000  Biso   1.000  O
  O9       1.0000 0.82143  0.50631  0.81512  Biso   1.000  O
  O10      1.0000 0.32143  0.50631  0.31512  Biso   1.000  O
  O11      1.0000 0.30881  0.99369  0.81512  Biso   1.000  O
  O12      1.0000 0.80881  0.99369  0.31512  Biso   1.000  O
  O13      1.0000 0.67857  0.49369  0.68488  Biso   1.000  O
  O14      1.0000 0.17857  0.49369  0.18488  Biso   1.000  O
  O15      1.0000 0.19119  0.00631  0.68488  Biso   1.000  O
  O16      1.0000 0.69119  0.00631  0.18488  Biso   1.000  O
  O17      1.0000 0.62747  0.25000  0.87747  Biso   1.000  O
  O18      1.0000 0.12747  0.25000  0.37747  Biso   1.000  O
  O19      1.0000 0.13489  0.75000  0.88489  Biso   1.000  O
  O20      1.0000 0.63489  0.75000  0.38489  Biso   1.000  O
  O21      1.0000 0.87253  0.75000  0.62253  Biso   1.000  O
  O22      1.0000 0.37253  0.75000  0.12253  Biso   1.000  O
  O23      1.0000 0.36511  0.25000  0.61511  Biso   1.000  O
  O24      1.0000 0.86511  0.25000  0.11511  Biso   1.000  O
  O25      1.0000 0.61882  0.25000  0.36882  Biso   1.000  O
  O26      1.0000 0.11882  0.25000  0.86882  Biso   1.000  O
  O27      1.0000 0.11882  0.75000  0.36882  Biso   1.000  O
  O28      1.0000 0.61882  0.75000  0.86882  Biso   1.000  O
  O29      1.0000 0.88118  0.25000  0.63118  Biso   1.000  O
  O30      1.0000 0.38118  0.25000  0.13118  Biso   1.000  O
  O31      1.0000 0.38118  0.75000  0.63118  Biso   1.000  O
  O32      1.0000 0.88118  0.75000  0.13118  Biso   1.000  O
  O33      1.0000 0.94814  0.49627  0.95187  Biso   1.000  O
  O34      1.0000 0.44814  0.49627  0.45187  Biso   1.000  O
  O35      1.0000 0.45560  0.00373  0.95187  Biso   1.000  O
  O36      1.0000 0.95560  0.00373  0.45187  Biso   1.000  O
  O37      1.0000 0.55186  0.50373  0.54813  Biso   1.000  O
  O38      1.0000 0.05186  0.50373  0.04813  Biso   1.000  O
  O39      1.0000 0.04440  0.99627  0.54813  Biso   1.000  O
  O40      1.0000 0.54440  0.99627  0.04813  Biso   1.000  O
