data_image0
_cell_length_a       16.1647
_cell_length_b       16.1647
_cell_length_c       7.8528
_cell_angle_alpha    104.058
_cell_angle_beta     104.058
_cell_angle_gamma    28.1154

_symmetry_space_group_name_H-M    "P 1"
_symmetry_int_tables_number       1

loop_
  _symmetry_equiv_pos_as_xyz
  'x, y, z'

loop_
  _atom_site_label
  _atom_site_occupancy
  _atom_site_fract_x
  _atom_site_fract_y
  _atom_site_fract_z
  _atom_site_thermal_displace_type
  _atom_site_B_iso_or_equiv
  _atom_site_type_symbol
  K1       1.0000 0.76771  0.76771  0.26771  Biso   1.000  K
  K2       1.0000 0.23229  0.23229  0.73229  Biso   1.000  K
  K3       1.0000 0.25000  0.25000  0.25000  Biso   1.000  K
  K4       1.0000 0.75000  0.75000  0.75000  Biso   1.000  K
  Pb1      1.0000 0.92765  0.92765  0.42296  Biso   1.000  Pb
  Pb2      1.0000 0.42561  0.42561  0.92091  Biso   1.000  Pb
  Pb3      1.0000 0.42663  0.42663  0.43132  Biso   1.000  Pb
  Pb4      1.0000 0.92663  0.92663  0.93132  Biso   1.000  Pb
  Pb5      1.0000 0.57337  0.57337  0.56868  Biso   1.000  Pb
  Pb6      1.0000 0.07337  0.07337  0.06868  Biso   1.000  Pb
  Pb7      1.0000 0.07235  0.07235  0.57704  Biso   1.000  Pb
  Pb8      1.0000 0.57439  0.57439  0.07909  Biso   1.000  Pb
  Nb1      1.0000 0.74973  0.25027  0.75027  Biso   1.000  Nb
  Nb2      1.0000 0.25027  0.74973  0.24973  Biso   1.000  Nb
  Nb3      1.0000 0.25027  0.74973  0.75027  Biso   1.000  Nb
  Nb4      1.0000 0.74973  0.25027  0.24973  Biso   1.000  Nb
  Ta1      1.0000 0.60826  0.10458  0.60563  Biso   1.000  Ta
  Ta2      1.0000 0.10668  0.60616  0.10721  Biso   1.000  Ta
  Ta3      1.0000 0.10458  0.60826  0.60563  Biso   1.000  Ta
  Ta4      1.0000 0.60616  0.10668  0.10721  Biso   1.000  Ta
  Ta5      1.0000 0.89332  0.39384  0.89279  Biso   1.000  Ta
  Ta6      1.0000 0.39174  0.89542  0.39437  Biso   1.000  Ta
  Ta7      1.0000 0.39384  0.89332  0.89279  Biso   1.000  Ta
  Ta8      1.0000 0.89542  0.39174  0.39437  Biso   1.000  Ta
  O1       1.0000 0.99339  0.99339  0.74328  Biso   1.000  O
  O2       1.0000 0.49339  0.49339  0.24350  Biso   1.000  O
  O3       1.0000 0.50661  0.50661  0.75650  Biso   1.000  O
  O4       1.0000 0.00661  0.00661  0.25672  Biso   1.000  O
  O5       1.0000 0.75011  0.24989  0.00000  Biso   1.000  O
  O6       1.0000 0.24989  0.75011  0.50000  Biso   1.000  O
  O7       1.0000 0.24989  0.75011  0.00000  Biso   1.000  O
  O8       1.0000 0.75011  0.24989  0.50000  Biso   1.000  O
  O9       1.0000 0.67767  0.19209  0.68578  Biso   1.000  O
  O10      1.0000 0.17947  0.69029  0.18398  Biso   1.000  O
  O11      1.0000 0.19209  0.67767  0.68578  Biso   1.000  O
  O12      1.0000 0.69029  0.17947  0.18398  Biso   1.000  O
  O13      1.0000 0.82053  0.30971  0.81602  Biso   1.000  O
  O14      1.0000 0.32233  0.80791  0.31422  Biso   1.000  O
  O15      1.0000 0.30971  0.82053  0.81602  Biso   1.000  O
  O16      1.0000 0.80791  0.32233  0.31422  Biso   1.000  O
  O17      1.0000 0.87440  0.87440  0.62420  Biso   1.000  O
  O18      1.0000 0.37065  0.37065  0.12086  Biso   1.000  O
  O19      1.0000 0.36324  0.36324  0.61303  Biso   1.000  O
  O20      1.0000 0.86699  0.86699  0.11720  Biso   1.000  O
  O21      1.0000 0.62935  0.62935  0.87914  Biso   1.000  O
  O22      1.0000 0.12560  0.12560  0.37580  Biso   1.000  O
  O23      1.0000 0.13301  0.13301  0.88280  Biso   1.000  O
  O24      1.0000 0.63676  0.63676  0.38697  Biso   1.000  O
  O25      1.0000 0.88326  0.38285  0.13306  Biso   1.000  O
  O26      1.0000 0.37910  0.87951  0.62930  Biso   1.000  O
  O27      1.0000 0.38285  0.88326  0.13306  Biso   1.000  O
  O28      1.0000 0.87951  0.37910  0.62930  Biso   1.000  O
  O29      1.0000 0.61715  0.11674  0.86694  Biso   1.000  O
  O30      1.0000 0.12049  0.62090  0.37070  Biso   1.000  O
  O31      1.0000 0.11674  0.61715  0.86694  Biso   1.000  O
  O32      1.0000 0.62090  0.12049  0.37070  Biso   1.000  O
  O33      1.0000 0.55528  0.04098  0.54471  Biso   1.000  O
  O34      1.0000 0.04844  0.54782  0.05155  Biso   1.000  O
  O35      1.0000 0.04098  0.55528  0.54471  Biso   1.000  O
  O36      1.0000 0.54782  0.04844  0.05155  Biso   1.000  O
  O37      1.0000 0.95156  0.45218  0.94845  Biso   1.000  O
  O38      1.0000 0.44472  0.95902  0.45529  Biso   1.000  O
  O39      1.0000 0.45218  0.95156  0.94845  Biso   1.000  O
  O40      1.0000 0.95902  0.44472  0.45529  Biso   1.000  O
