data_image0
_cell_length_a       16.1647
_cell_length_b       16.1647
_cell_length_c       16.1647
_cell_angle_alpha    151.885
_cell_angle_beta     40.1819
_cell_angle_gamma    151.885

_symmetry_space_group_name_H-M    "P 1"
_symmetry_int_tables_number       1

loop_
  _symmetry_equiv_pos_as_xyz
  'x, y, z'

loop_
  _atom_site_label
  _atom_site_occupancy
  _atom_site_fract_x
  _atom_site_fract_y
  _atom_site_fract_z
  _atom_site_thermal_displace_type
  _atom_site_B_iso_or_equiv
  _atom_site_type_symbol
  K1       1.0000 0.82758  0.59529  0.23229  Biso   1.000  K
  K2       1.0000 0.36301  0.59529  0.76771  Biso   1.000  K
  K3       1.0000 0.82271  0.07271  0.75000  Biso   1.000  K
  K4       1.0000 0.32271  0.07271  0.25000  Biso   1.000  K
  Pb1      1.0000 0.65262  0.58027  0.07235  Biso   1.000  Pb
  Pb2      1.0000 0.15466  0.58027  0.57439  Biso   1.000  Pb
  Pb3      1.0000 0.66110  0.08773  0.57337  Biso   1.000  Pb
  Pb4      1.0000 0.16110  0.08773  0.07337  Biso   1.000  Pb
  Pb5      1.0000 0.51436  0.08773  0.42663  Biso   1.000  Pb
  Pb6      1.0000 0.01436  0.08773  0.92663  Biso   1.000  Pb
  Pb7      1.0000 0.50792  0.58027  0.92765  Biso   1.000  Pb
  Pb8      1.0000 0.00588  0.58027  0.42561  Biso   1.000  Pb
  Nb1      1.0000 0.33373  0.08346  0.74973  Biso   1.000  Nb
  Nb2      1.0000 0.83427  0.08454  0.25027  Biso   1.000  Nb
  Nb3      1.0000 0.33373  0.58400  0.25027  Biso   1.000  Nb
  Nb4      1.0000 0.83427  0.58400  0.74973  Biso   1.000  Nb
  Ta1      1.0000 0.47837  0.08383  0.89262  Biso   1.000  Ta
  Ta2      1.0000 0.97679  0.08068  0.39105  Biso   1.000  Ta
  Ta3      1.0000 0.47837  0.58574  0.39454  Biso   1.000  Ta
  Ta4      1.0000 0.97679  0.58574  0.89611  Biso   1.000  Ta
  Ta5      1.0000 0.19121  0.08383  0.60546  Biso   1.000  Ta
  Ta6      1.0000 0.68963  0.08068  0.10389  Biso   1.000  Ta
  Ta7      1.0000 0.19121  0.58574  0.10738  Biso   1.000  Ta
  Ta8      1.0000 0.68963  0.58574  0.60895  Biso   1.000  Ta
  O1       1.0000 0.33411  0.33411  0.00000  Biso   1.000  O
  O2       1.0000 0.83389  0.33389  0.50000  Biso   1.000  O
  O3       1.0000 0.33411  0.83411  0.50000  Biso   1.000  O
  O4       1.0000 0.83389  0.83389  0.00000  Biso   1.000  O
  O5       1.0000 0.08400  0.83411  0.75011  Biso   1.000  O
  O6       1.0000 0.58400  0.83389  0.24989  Biso   1.000  O
  O7       1.0000 0.08400  0.33389  0.24989  Biso   1.000  O
  O8       1.0000 0.58400  0.33411  0.75011  Biso   1.000  O
  O9       1.0000 0.39822  0.08393  0.81595  Biso   1.000  O
  O10      1.0000 0.90002  0.08753  0.31775  Biso   1.000  O
  O11      1.0000 0.39822  0.58227  0.31429  Biso   1.000  O
  O12      1.0000 0.90002  0.58227  0.81249  Biso   1.000  O
  O13      1.0000 0.26798  0.08393  0.68571  Biso   1.000  O
  O14      1.0000 0.76978  0.08753  0.18751  Biso   1.000  O
  O15      1.0000 0.26798  0.58227  0.18405  Biso   1.000  O
  O16      1.0000 0.76978  0.58227  0.68225  Biso   1.000  O
  O17      1.0000 0.46612  0.33421  0.13191  Biso   1.000  O
  O18      1.0000 0.96946  0.33379  0.63566  Biso   1.000  O
  O19      1.0000 0.46466  0.83421  0.63045  Biso   1.000  O
  O20      1.0000 0.96049  0.83379  0.12670  Biso   1.000  O
  O21      1.0000 0.20376  0.83421  0.36955  Biso   1.000  O
  O22      1.0000 0.70710  0.83379  0.87330  Biso   1.000  O
  O23      1.0000 0.20230  0.33421  0.86809  Biso   1.000  O
  O24      1.0000 0.69813  0.33379  0.36434  Biso   1.000  O
  O25      1.0000 0.95094  0.83421  0.61715  Biso   1.000  O
  O26      1.0000 0.45470  0.83379  0.12049  Biso   1.000  O
  O27      1.0000 0.95094  0.33379  0.11674  Biso   1.000  O
  O28      1.0000 0.45470  0.33420  0.62090  Biso   1.000  O
  O29      1.0000 0.21705  0.83421  0.88326  Biso   1.000  O
  O30      1.0000 0.71330  0.83379  0.37910  Biso   1.000  O
  O31      1.0000 0.21705  0.33379  0.38285  Biso   1.000  O
  O32      1.0000 0.71330  0.33420  0.87951  Biso   1.000  O
  O33      1.0000 0.53929  0.08615  0.95060  Biso   1.000  O
  O34      1.0000 0.03245  0.07247  0.44376  Biso   1.000  O
  O35      1.0000 0.53929  0.58869  0.45314  Biso   1.000  O
  O36      1.0000 0.03245  0.58869  0.95998  Biso   1.000  O
  O37      1.0000 0.13555  0.08615  0.54686  Biso   1.000  O
  O38      1.0000 0.62871  0.07247  0.04002  Biso   1.000  O
  O39      1.0000 0.13555  0.58869  0.04940  Biso   1.000  O
  O40      1.0000 0.62871  0.58869  0.55624  Biso   1.000  O
