data_image0
_cell_length_a       16.1647
_cell_length_b       16.1647
_cell_length_c       7.8528
_cell_angle_alpha    104.058
_cell_angle_beta     104.058
_cell_angle_gamma    139.818

_symmetry_space_group_name_H-M    "P 1"
_symmetry_int_tables_number       1

loop_
  _symmetry_equiv_pos_as_xyz
  'x, y, z'

loop_
  _atom_site_label
  _atom_site_occupancy
  _atom_site_fract_x
  _atom_site_fract_y
  _atom_site_fract_z
  _atom_site_thermal_displace_type
  _atom_site_B_iso_or_equiv
  _atom_site_type_symbol
  K1       1.0000 0.24435  0.24435  0.72810  Biso   1.000  K
  K2       1.0000 0.74435  0.74435  0.74931  Biso   1.000  K
  K3       1.0000 0.25565  0.25565  0.25069  Biso   1.000  K
  K4       1.0000 0.75565  0.75565  0.27190  Biso   1.000  K
  Pb1      1.0000 0.42849  0.07523  0.75373  Biso   1.000  Pb
  Pb2      1.0000 0.92849  0.57523  0.75373  Biso   1.000  Pb
  Pb3      1.0000 0.42477  0.07151  0.24627  Biso   1.000  Pb
  Pb4      1.0000 0.92477  0.57151  0.24627  Biso   1.000  Pb
  Pb5      1.0000 0.57151  0.92477  0.24627  Biso   1.000  Pb
  Pb6      1.0000 0.07151  0.42477  0.24627  Biso   1.000  Pb
  Pb7      1.0000 0.57523  0.92849  0.75373  Biso   1.000  Pb
  Pb8      1.0000 0.07523  0.42849  0.75373  Biso   1.000  Pb
  Nb1      1.0000 0.75000  0.25000  0.75000  Biso   1.000  Nb
  Nb2      1.0000 0.25000  0.75000  0.75000  Biso   1.000  Nb
  Nb3      1.0000 0.75000  0.25000  0.25000  Biso   1.000  Nb
  Nb4      1.0000 0.25000  0.75000  0.25000  Biso   1.000  Nb
  Ta1      1.0000 0.60555  0.39271  0.74825  Biso   1.000  Ta
  Ta2      1.0000 0.10555  0.89271  0.74825  Biso   1.000  Ta
  Ta3      1.0000 0.60729  0.39445  0.25175  Biso   1.000  Ta
  Ta4      1.0000 0.10729  0.89445  0.25175  Biso   1.000  Ta
  Ta5      1.0000 0.89271  0.10555  0.74825  Biso   1.000  Ta
  Ta6      1.0000 0.39271  0.60555  0.74825  Biso   1.000  Ta
  Ta7      1.0000 0.89445  0.10729  0.25175  Biso   1.000  Ta
  Ta8      1.0000 0.39445  0.60729  0.25175  Biso   1.000  Ta
  O1       1.0000 0.75000  0.25000  0.00000  Biso   1.000  O
  O2       1.0000 0.25000  0.75000  0.00000  Biso   1.000  O
  O3       1.0000 0.75000  0.25000  0.50000  Biso   1.000  O
  O4       1.0000 0.25000  0.75000  0.50000  Biso   1.000  O
  O5       1.0000 0.00000  0.50000  0.00000  Biso   1.000  O
  O6       1.0000 0.50000  0.00000  0.00000  Biso   1.000  O
  O7       1.0000 0.00000  0.50000  0.50000  Biso   1.000  O
  O8       1.0000 0.50000  0.00000  0.50000  Biso   1.000  O
  O9       1.0000 0.68575  0.31599  0.75173  Biso   1.000  O
  O10      1.0000 0.18575  0.81599  0.75173  Biso   1.000  O
  O11      1.0000 0.68401  0.31425  0.24827  Biso   1.000  O
  O12      1.0000 0.18401  0.81425  0.24827  Biso   1.000  O
  O13      1.0000 0.81599  0.18575  0.75173  Biso   1.000  O
  O14      1.0000 0.31599  0.68575  0.75173  Biso   1.000  O
  O15      1.0000 0.81425  0.18401  0.24827  Biso   1.000  O
  O16      1.0000 0.31425  0.68401  0.24827  Biso   1.000  O
  O17      1.0000 0.61752  0.38248  0.00000  Biso   1.000  O
  O18      1.0000 0.11752  0.88248  0.00000  Biso   1.000  O
  O19      1.0000 0.62012  0.37988  0.50000  Biso   1.000  O
  O20      1.0000 0.12012  0.87988  0.50000  Biso   1.000  O
  O21      1.0000 0.87988  0.12012  0.50000  Biso   1.000  O
  O22      1.0000 0.37988  0.62012  0.50000  Biso   1.000  O
  O23      1.0000 0.88248  0.11752  0.00000  Biso   1.000  O
  O24      1.0000 0.38248  0.61752  0.00000  Biso   1.000  O
  O25      1.0000 0.13248  0.36752  0.00000  Biso   1.000  O
  O26      1.0000 0.63248  0.86752  1.00000  Biso   1.000  O
  O27      1.0000 0.12988  0.37012  0.50000  Biso   1.000  O
  O28      1.0000 0.62988  0.87012  0.50000  Biso   1.000  O
  O29      1.0000 0.86752  0.63248  1.00000  Biso   1.000  O
  O30      1.0000 0.36752  0.13248  0.00000  Biso   1.000  O
  O31      1.0000 0.87012  0.62988  0.50000  Biso   1.000  O
  O32      1.0000 0.37012  0.12988  0.50000  Biso   1.000  O
  O33      1.0000 0.54578  0.44952  0.74531  Biso   1.000  O
  O34      1.0000 0.04578  0.94952  0.74531  Biso   1.000  O
  O35      1.0000 0.55048  0.45422  0.25469  Biso   1.000  O
  O36      1.0000 0.05048  0.95422  0.25469  Biso   1.000  O
  O37      1.0000 0.94952  0.04578  0.74531  Biso   1.000  O
  O38      1.0000 0.44952  0.54578  0.74531  Biso   1.000  O
  O39      1.0000 0.95422  0.05048  0.25469  Biso   1.000  O
  O40      1.0000 0.45422  0.55048  0.25469  Biso   1.000  O
