data_image0
_cell_length_a       7.8528
_cell_length_b       15.1811
_cell_length_c       11.1055
_cell_angle_alpha    90
_cell_angle_beta     135
_cell_angle_gamma    90

_symmetry_space_group_name_H-M    "P 1"
_symmetry_int_tables_number       1

loop_
  _symmetry_equiv_pos_as_xyz
  'x, y, z'

loop_
  _atom_site_label
  _atom_site_occupancy
  _atom_site_fract_x
  _atom_site_fract_y
  _atom_site_fract_z
  _atom_site_thermal_displace_type
  _atom_site_B_iso_or_equiv
  _atom_site_type_symbol
  K1       1.0000 0.73871  0.48828  0.24435  Biso   1.000  K
  K2       1.0000 0.26129  0.48828  0.25565  Biso   1.000  K
  K3       1.0000 0.26129  0.51172  0.75565  Biso   1.000  K
  K4       1.0000 0.73871  0.51172  0.74435  Biso   1.000  K
  Pb1      1.0000 0.75373  0.85234  0.25186  Biso   1.000  Pb
  Pb2      1.0000 0.24627  0.85234  0.24814  Biso   1.000  Pb
  Pb3      1.0000 0.24627  0.85418  0.74814  Biso   1.000  Pb
  Pb4      1.0000 0.75373  0.85418  0.75186  Biso   1.000  Pb
  Pb5      1.0000 0.24627  0.14582  0.24814  Biso   1.000  Pb
  Pb6      1.0000 0.75373  0.14582  0.25186  Biso   1.000  Pb
  Pb7      1.0000 0.75373  0.14766  0.75186  Biso   1.000  Pb
  Pb8      1.0000 0.24627  0.14766  0.74814  Biso   1.000  Pb
  Nb1      1.0000 0.75000  0.00000  0.50000  Biso   1.000  Nb
  Nb2      1.0000 0.25000  0.00000  0.50000  Biso   1.000  Nb
  Nb3      1.0000 0.25000  0.00000  0.00000  Biso   1.000  Nb
  Nb4      1.0000 0.75000  0.00000  0.00000  Biso   1.000  Nb
  Ta1      1.0000 0.74899  0.71284  0.49986  Biso   1.000  Ta
  Ta2      1.0000 0.25248  0.71284  0.50161  Biso   1.000  Ta
  Ta3      1.0000 0.25101  0.71284  0.00014  Biso   1.000  Ta
  Ta4      1.0000 0.74752  0.71284  0.99839  Biso   1.000  Ta
  Ta5      1.0000 0.74752  0.28716  0.49839  Biso   1.000  Ta
  Ta6      1.0000 0.25101  0.28716  0.50014  Biso   1.000  Ta
  Ta7      1.0000 0.25248  0.28716  0.00161  Biso   1.000  Ta
  Ta8      1.0000 0.74899  0.28716  0.99986  Biso   1.000  Ta
  O1       1.0000 0.00000  0.00000  0.50000  Biso   1.000  O
  O2       1.0000 0.50000  0.00000  0.50000  Biso   1.000  O
  O3       1.0000 0.50000  0.00000  0.00000  Biso   1.000  O
  O4       1.0000 0.00000  0.00000  0.00000  Biso   1.000  O
  O5       1.0000 1.00000  0.99355  0.75000  Biso   1.000  O
  O6       1.0000 0.50000  0.99355  0.75000  Biso   1.000  O
  O7       1.0000 0.50000  0.00645  0.25000  Biso   1.000  O
  O8       1.0000 0.00000  0.00645  0.25000  Biso   1.000  O
  O9       1.0000 0.74881  0.86976  0.49795  Biso   1.000  O
  O10      1.0000 0.24535  0.86976  0.49622  Biso   1.000  O
  O11      1.0000 0.25119  0.86976  0.00205  Biso   1.000  O
  O12      1.0000 0.75465  0.86976  0.00378  Biso   1.000  O
  O13      1.0000 0.75465  0.13024  0.50378  Biso   1.000  O
  O14      1.0000 0.25119  0.13024  0.50205  Biso   1.000  O
  O15      1.0000 0.24535  0.13024  0.99622  Biso   1.000  O
  O16      1.0000 0.74881  0.13024  0.99795  Biso   1.000  O
  O17      1.0000 0.00037  0.73503  0.50037  Biso   1.000  O
  O18      1.0000 0.50037  0.74025  0.50037  Biso   1.000  O
  O19      1.0000 0.49963  0.74025  0.99963  Biso   1.000  O
  O20      1.0000 0.99963  0.73503  0.99963  Biso   1.000  O
  O21      1.0000 0.49963  0.25975  0.49963  Biso   1.000  O
  O22      1.0000 0.99963  0.26497  0.49963  Biso   1.000  O
  O23      1.0000 0.00037  0.26497  0.00037  Biso   1.000  O
  O24      1.0000 0.50037  0.25975  0.00037  Biso   1.000  O
  O25      1.0000 1.00000  0.27099  0.75000  Biso   1.000  O
  O26      1.0000 0.50000  0.26578  0.75000  Biso   1.000  O
  O27      1.0000 0.50000  0.25373  0.25000  Biso   1.000  O
  O28      1.0000 0.00000  0.25894  0.25000  Biso   1.000  O
  O29      1.0000 1.00000  0.74106  0.75000  Biso   1.000  O
  O30      1.0000 0.50000  0.74627  0.75000  Biso   1.000  O
  O31      1.0000 0.50000  0.73422  0.25000  Biso   1.000  O
  O32      1.0000 0.00000  0.72901  0.25000  Biso   1.000  O
  O33      1.0000 0.74923  0.59626  0.50158  Biso   1.000  O
  O34      1.0000 0.25861  0.59626  0.50627  Biso   1.000  O
  O35      1.0000 0.25077  0.59626  0.99842  Biso   1.000  O
  O36      1.0000 0.74139  0.59626  0.99373  Biso   1.000  O
  O37      1.0000 0.74139  0.40374  0.49373  Biso   1.000  O
  O38      1.0000 0.25077  0.40374  0.49842  Biso   1.000  O
  O39      1.0000 0.25861  0.40374  0.00627  Biso   1.000  O
  O40      1.0000 0.74923  0.40374  0.00158  Biso   1.000  O
