data_image0
_cell_length_a       7.8528
_cell_length_b       15.1811
_cell_length_c       7.8528
_cell_angle_alpha    90
_cell_angle_beta     90
_cell_angle_gamma    90

_symmetry_space_group_name_H-M    "P 1"
_symmetry_int_tables_number       1

loop_
  _symmetry_equiv_pos_as_xyz
  'x, y, z'

loop_
  _atom_site_label
  _atom_site_occupancy
  _atom_site_fract_x
  _atom_site_fract_y
  _atom_site_fract_z
  _atom_site_thermal_displace_type
  _atom_site_B_iso_or_equiv
  _atom_site_type_symbol
  K1       1.0000 0.00000  0.52345  0.30329  Biso   1.000  K
  K2       1.0000 0.50000  0.50000  0.28071  Biso   1.000  K
  K3       1.0000 0.00000  0.50000  0.78071  Biso   1.000  K
  K4       1.0000 0.50000  0.47655  0.80329  Biso   1.000  K
  Pb1      1.0000 0.00000  0.14857  0.28827  Biso   1.000  Pb
  Pb2      1.0000 0.50000  0.14674  0.29573  Biso   1.000  Pb
  Pb3      1.0000 0.00000  0.14674  0.79573  Biso   1.000  Pb
  Pb4      1.0000 0.50000  0.14491  0.78827  Biso   1.000  Pb
  Pb5      1.0000 0.50000  0.85326  0.29573  Biso   1.000  Pb
  Pb6      1.0000 0.00000  0.85509  0.28827  Biso   1.000  Pb
  Pb7      1.0000 0.50000  0.85143  0.78827  Biso   1.000  Pb
  Pb8      1.0000 0.00000  0.85326  0.79573  Biso   1.000  Pb
  Nb1      1.0000 0.75000  0.00000  0.04200  Biso   1.000  Nb
  Nb2      1.0000 0.25000  0.00000  0.04200  Biso   1.000  Nb
  Nb3      1.0000 0.75000  0.00000  0.54200  Biso   1.000  Nb
  Nb4      1.0000 0.25000  0.00000  0.54200  Biso   1.000  Nb
  Ta1      1.0000 0.74752  0.28716  0.04127  Biso   1.000  Ta
  Ta2      1.0000 0.25248  0.28716  0.04127  Biso   1.000  Ta
  Ta3      1.0000 0.75101  0.28716  0.54273  Biso   1.000  Ta
  Ta4      1.0000 0.24899  0.28716  0.54273  Biso   1.000  Ta
  Ta5      1.0000 0.74899  0.71284  0.04273  Biso   1.000  Ta
  Ta6      1.0000 0.25101  0.71284  0.04273  Biso   1.000  Ta
  Ta7      1.0000 0.75248  0.71284  0.54127  Biso   1.000  Ta
  Ta8      1.0000 0.24752  0.71284  0.54127  Biso   1.000  Ta
  O1       1.0000 0.00000  0.99355  0.04200  Biso   1.000  O
  O2       1.0000 0.50000  0.00645  0.04200  Biso   1.000  O
  O3       1.0000 0.00000  0.99355  0.54200  Biso   1.000  O
  O4       1.0000 0.50000  0.00645  0.54200  Biso   1.000  O
  O5       1.0000 0.75000  0.00645  0.79200  Biso   1.000  O
  O6       1.0000 0.25000  0.00645  0.79200  Biso   1.000  O
  O7       1.0000 0.75000  0.99355  0.29200  Biso   1.000  O
  O8       1.0000 0.25000  0.99355  0.29200  Biso   1.000  O
  O9       1.0000 0.75465  0.13024  0.04492  Biso   1.000  O
  O10      1.0000 0.24535  0.13024  0.04492  Biso   1.000  O
  O11      1.0000 0.75119  0.13024  0.53908  Biso   1.000  O
  O12      1.0000 0.24881  0.13024  0.53908  Biso   1.000  O
  O13      1.0000 0.74881  0.86976  0.03908  Biso   1.000  O
  O14      1.0000 0.25119  0.86976  0.03908  Biso   1.000  O
  O15      1.0000 0.74535  0.86976  0.54492  Biso   1.000  O
  O16      1.0000 0.25465  0.86976  0.54492  Biso   1.000  O
  O17      1.0000 0.00000  0.27360  0.04163  Biso   1.000  O
  O18      1.0000 0.50000  0.25112  0.04163  Biso   1.000  O
  O19      1.0000 0.00000  0.26318  0.54237  Biso   1.000  O
  O20      1.0000 0.50000  0.26154  0.54237  Biso   1.000  O
  O21      1.0000 0.50000  0.73682  0.04237  Biso   1.000  O
  O22      1.0000 0.00000  0.73846  0.04237  Biso   1.000  O
  O23      1.0000 0.50000  0.72640  0.54163  Biso   1.000  O
  O24      1.0000 0.00000  0.74888  0.54163  Biso   1.000  O
  O25      1.0000 0.75038  0.73161  0.79200  Biso   1.000  O
  O26      1.0000 0.24962  0.73161  0.79200  Biso   1.000  O
  O27      1.0000 0.75038  0.74367  0.29200  Biso   1.000  O
  O28      1.0000 0.24962  0.74367  0.29200  Biso   1.000  O
  O29      1.0000 0.74962  0.25633  0.79200  Biso   1.000  O
  O30      1.0000 0.25038  0.25633  0.79200  Biso   1.000  O
  O31      1.0000 0.74962  0.26839  0.29200  Biso   1.000  O
  O32      1.0000 0.25038  0.26839  0.29200  Biso   1.000  O
  O33      1.0000 0.74139  0.40374  0.03808  Biso   1.000  O
  O34      1.0000 0.25861  0.40374  0.03808  Biso   1.000  O
  O35      1.0000 0.75077  0.40374  0.54592  Biso   1.000  O
  O36      1.0000 0.24923  0.40374  0.54592  Biso   1.000  O
  O37      1.0000 0.74923  0.59626  0.04592  Biso   1.000  O
  O38      1.0000 0.25077  0.59626  0.04592  Biso   1.000  O
  O39      1.0000 0.75861  0.59626  0.53808  Biso   1.000  O
  O40      1.0000 0.24139  0.59626  0.53808  Biso   1.000  O
