data_image0
_cell_length_a       16.1647
_cell_length_b       16.1647
_cell_length_c       7.8528
_cell_angle_alpha    104.058
_cell_angle_beta     104.058
_cell_angle_gamma    139.818

_symmetry_space_group_name_H-M    "P 1"
_symmetry_int_tables_number       1

loop_
  _symmetry_equiv_pos_as_xyz
  'x, y, z'

loop_
  _atom_site_label
  _atom_site_occupancy
  _atom_site_fract_x
  _atom_site_fract_y
  _atom_site_fract_z
  _atom_site_thermal_displace_type
  _atom_site_B_iso_or_equiv
  _atom_site_type_symbol
  K1       1.0000 0.76450  0.24679  0.76129  Biso   1.000  K
  K2       1.0000 0.24679  0.76450  0.76129  Biso   1.000  K
  K3       1.0000 0.75321  0.23550  0.23871  Biso   1.000  K
  K4       1.0000 0.23550  0.75321  0.23871  Biso   1.000  K
  Pb1      1.0000 0.92528  0.07099  0.74627  Biso   1.000  Pb
  Pb2      1.0000 0.42425  0.57202  0.74627  Biso   1.000  Pb
  Pb3      1.0000 0.92901  0.07472  0.25373  Biso   1.000  Pb
  Pb4      1.0000 0.42798  0.57575  0.25373  Biso   1.000  Pb
  Pb5      1.0000 0.07472  0.92901  0.25373  Biso   1.000  Pb
  Pb6      1.0000 0.57575  0.42798  0.25373  Biso   1.000  Pb
  Pb7      1.0000 0.07099  0.92528  0.74627  Biso   1.000  Pb
  Pb8      1.0000 0.57202  0.42425  0.74627  Biso   1.000  Pb
  Nb1      1.0000 0.74973  0.74973  0.74973  Biso   1.000  Nb
  Nb2      1.0000 0.25027  0.25027  0.75027  Biso   1.000  Nb
  Nb3      1.0000 0.74973  0.74973  0.24973  Biso   1.000  Nb
  Nb4      1.0000 0.25027  0.25027  0.25027  Biso   1.000  Nb
  Ta1      1.0000 0.60808  0.89524  0.75253  Biso   1.000  Ta
  Ta2      1.0000 0.10650  0.39366  0.75096  Biso   1.000  Ta
  Ta3      1.0000 0.60634  0.89350  0.24904  Biso   1.000  Ta
  Ta4      1.0000 0.10476  0.39192  0.24747  Biso   1.000  Ta
  Ta5      1.0000 0.89524  0.60808  0.75253  Biso   1.000  Ta
  Ta6      1.0000 0.39366  0.10650  0.75096  Biso   1.000  Ta
  Ta7      1.0000 0.89350  0.60634  0.24904  Biso   1.000  Ta
  Ta8      1.0000 0.39192  0.10476  0.24747  Biso   1.000  Ta
  O1       1.0000 0.75011  0.75011  0.50011  Biso   1.000  O
  O2       1.0000 0.24989  0.24989  0.49989  Biso   1.000  O
  O3       1.0000 0.75011  0.75011  0.00011  Biso   1.000  O
  O4       1.0000 0.24989  0.24989  0.99989  Biso   1.000  O
  O5       1.0000 0.50000  0.50000  0.50000  Biso   1.000  O
  O6       1.0000 0.00000  0.00000  0.50000  Biso   1.000  O
  O7       1.0000 0.50000  0.50000  0.00000  Biso   1.000  O
  O8       1.0000 0.00000  0.00000  0.00000  Biso   1.000  O
  O9       1.0000 0.68311  0.81335  0.74737  Biso   1.000  O
  O10      1.0000 0.18492  0.31516  0.74917  Biso   1.000  O
  O11      1.0000 0.68484  0.81508  0.25083  Biso   1.000  O
  O12      1.0000 0.18665  0.31689  0.25263  Biso   1.000  O
  O13      1.0000 0.81335  0.68311  0.74737  Biso   1.000  O
  O14      1.0000 0.31516  0.18492  0.74917  Biso   1.000  O
  O15      1.0000 0.81508  0.68484  0.25083  Biso   1.000  O
  O16      1.0000 0.31689  0.18665  0.25263  Biso   1.000  O
  O17      1.0000 0.61772  0.88269  0.50021  Biso   1.000  O
  O18      1.0000 0.11731  0.38228  0.49979  Biso   1.000  O
  O19      1.0000 0.62033  0.88008  0.00021  Biso   1.000  O
  O20      1.0000 0.11992  0.37967  0.99979  Biso   1.000  O
  O21      1.0000 0.88008  0.62033  0.00021  Biso   1.000  O
  O22      1.0000 0.37967  0.11992  0.99979  Biso   1.000  O
  O23      1.0000 0.88269  0.61772  0.50021  Biso   1.000  O
  O24      1.0000 0.38228  0.11731  0.49979  Biso   1.000  O
  O25      1.0000 0.63436  0.36564  0.50000  Biso   1.000  O
  O26      1.0000 0.13061  0.86939  0.50000  Biso   1.000  O
  O27      1.0000 0.63175  0.36825  0.00000  Biso   1.000  O
  O28      1.0000 0.12800  0.87200  0.00000  Biso   1.000  O
  O29      1.0000 0.36564  0.63436  0.50000  Biso   1.000  O
  O30      1.0000 0.86939  0.13061  0.50000  Biso   1.000  O
  O31      1.0000 0.36825  0.63175  0.00000  Biso   1.000  O
  O32      1.0000 0.87200  0.12800  0.00000  Biso   1.000  O
  O33      1.0000 0.55389  0.95763  0.75811  Biso   1.000  O
  O34      1.0000 0.04706  0.45080  0.75127  Biso   1.000  O
  O35      1.0000 0.54920  0.95294  0.24873  Biso   1.000  O
  O36      1.0000 0.04237  0.44611  0.24189  Biso   1.000  O
  O37      1.0000 0.95763  0.55389  0.75811  Biso   1.000  O
  O38      1.0000 0.45080  0.04706  0.75127  Biso   1.000  O
  O39      1.0000 0.95294  0.54920  0.24873  Biso   1.000  O
  O40      1.0000 0.44611  0.04237  0.24189  Biso   1.000  O
