data_image0
_cell_length_a       16.1647
_cell_length_b       16.1647
_cell_length_c       16.1647
_cell_angle_alpha    151.885
_cell_angle_beta     40.1819
_cell_angle_gamma    151.885

_symmetry_space_group_name_H-M    "P 1"
_symmetry_int_tables_number       1

loop_
  _symmetry_equiv_pos_as_xyz
  'x, y, z'

loop_
  _atom_site_label
  _atom_site_occupancy
  _atom_site_fract_x
  _atom_site_fract_y
  _atom_site_fract_z
  _atom_site_thermal_displace_type
  _atom_site_B_iso_or_equiv
  _atom_site_type_symbol
  K1       1.0000 0.50069  0.25069  0.25000  Biso   1.000  K
  K2       1.0000 0.02190  0.27190  0.75000  Biso   1.000  K
  K3       1.0000 0.49931  0.74931  0.75000  Biso   1.000  K
  K4       1.0000 0.97810  0.72810  0.25000  Biso   1.000  K
  Pb1      1.0000 0.31964  0.24627  0.07337  Biso   1.000  Pb
  Pb2      1.0000 0.81964  0.24627  0.57337  Biso   1.000  Pb
  Pb3      1.0000 0.32710  0.75373  0.57337  Biso   1.000  Pb
  Pb4      1.0000 0.82710  0.75373  0.07337  Biso   1.000  Pb
  Pb5      1.0000 0.18036  0.75373  0.42663  Biso   1.000  Pb
  Pb6      1.0000 0.68036  0.75373  0.92663  Biso   1.000  Pb
  Pb7      1.0000 0.17290  0.24627  0.92663  Biso   1.000  Pb
  Pb8      1.0000 0.67290  0.24627  0.42663  Biso   1.000  Pb
  Nb1      1.0000 0.00000  0.75000  0.75000  Biso   1.000  Nb
  Nb2      1.0000 0.50000  0.75000  0.25000  Biso   1.000  Nb
  Nb3      1.0000 0.00000  0.25000  0.25000  Biso   1.000  Nb
  Nb4      1.0000 0.50000  0.25000  0.75000  Biso   1.000  Nb
  Ta1      1.0000 0.14358  0.74826  0.89184  Biso   1.000  Ta
  Ta2      1.0000 0.64358  0.74826  0.39184  Biso   1.000  Ta
  Ta3      1.0000 0.14358  0.25174  0.39532  Biso   1.000  Ta
  Ta4      1.0000 0.64358  0.25174  0.89532  Biso   1.000  Ta
  Ta5      1.0000 0.85642  0.74826  0.60468  Biso   1.000  Ta
  Ta6      1.0000 0.35642  0.74826  0.10468  Biso   1.000  Ta
  Ta7      1.0000 0.85642  0.25174  0.10816  Biso   1.000  Ta
  Ta8      1.0000 0.35642  0.25174  0.60816  Biso   1.000  Ta
  O1       1.0000 0.00000  0.00000  0.00000  Biso   1.000  O
  O2       1.0000 0.50000  0.00000  0.50000  Biso   1.000  O
  O3       1.0000 0.00000  0.50000  0.50000  Biso   1.000  O
  O4       1.0000 0.50000  0.50000  0.00000  Biso   1.000  O
  O5       1.0000 0.75000  0.50000  0.75000  Biso   1.000  O
  O6       1.0000 0.25000  0.50000  0.25000  Biso   1.000  O
  O7       1.0000 0.75000  0.00000  0.25000  Biso   1.000  O
  O8       1.0000 0.25000  0.00000  0.75000  Biso   1.000  O
  O9       1.0000 0.06512  0.75173  0.81685  Biso   1.000  O
  O10      1.0000 0.56512  0.75173  0.31685  Biso   1.000  O
  O11      1.0000 0.06512  0.24827  0.31339  Biso   1.000  O
  O12      1.0000 0.56512  0.24827  0.81339  Biso   1.000  O
  O13      1.0000 0.93488  0.75173  0.68661  Biso   1.000  O
  O14      1.0000 0.43488  0.75173  0.18661  Biso   1.000  O
  O15      1.0000 0.93488  0.24827  0.18315  Biso   1.000  O
  O16      1.0000 0.43488  0.24827  0.68315  Biso   1.000  O
  O17      1.0000 0.13379  0.00000  0.13379  Biso   1.000  O
  O18      1.0000 0.63379  1.00000  0.63379  Biso   1.000  O
  O19      1.0000 0.12857  0.50000  0.62857  Biso   1.000  O
  O20      1.0000 0.62857  0.50000  0.12857  Biso   1.000  O
  O21      1.0000 0.87143  0.50000  0.37143  Biso   1.000  O
  O22      1.0000 0.37143  0.50000  0.87143  Biso   1.000  O
  O23      1.0000 0.86621  0.00000  0.86621  Biso   1.000  O
  O24      1.0000 0.36621  0.00000  0.36621  Biso   1.000  O
  O25      1.0000 0.61882  0.50000  0.61882  Biso   1.000  O
  O26      1.0000 0.11882  0.50000  0.11882  Biso   1.000  O
  O27      1.0000 0.61882  0.00000  0.11882  Biso   1.000  O
  O28      1.0000 0.11882  0.00000  0.61882  Biso   1.000  O
  O29      1.0000 0.88118  0.50000  0.88118  Biso   1.000  O
  O30      1.0000 0.38118  0.50000  0.38118  Biso   1.000  O
  O31      1.0000 0.88118  0.00000  0.38118  Biso   1.000  O
  O32      1.0000 0.38118  0.00000  0.88118  Biso   1.000  O
  O33      1.0000 0.20187  0.74531  0.94718  Biso   1.000  O
  O34      1.0000 0.70187  0.74531  0.44718  Biso   1.000  O
  O35      1.0000 0.20187  0.25469  0.45656  Biso   1.000  O
  O36      1.0000 0.70187  0.25469  0.95656  Biso   1.000  O
  O37      1.0000 0.79813  0.74531  0.54344  Biso   1.000  O
  O38      1.0000 0.29813  0.74531  0.04344  Biso   1.000  O
  O39      1.0000 0.79813  0.25469  0.05282  Biso   1.000  O
  O40      1.0000 0.29813  0.25469  0.55282  Biso   1.000  O
