data_image0
_cell_length_a       16.1647
_cell_length_b       16.1647
_cell_length_c       16.1647
_cell_angle_alpha    40.1819
_cell_angle_beta     151.885
_cell_angle_gamma    151.885

_symmetry_space_group_name_H-M    "P 1"
_symmetry_int_tables_number       1

loop_
  _symmetry_equiv_pos_as_xyz
  'x, y, z'

loop_
  _atom_site_label
  _atom_site_occupancy
  _atom_site_fract_x
  _atom_site_fract_y
  _atom_site_fract_z
  _atom_site_thermal_displace_type
  _atom_site_B_iso_or_equiv
  _atom_site_type_symbol
  K1       1.0000 0.53208  0.53139  0.50069  Biso   1.000  K
  K2       1.0000 0.57450  0.05261  0.02190  Biso   1.000  K
  K3       1.0000 0.03071  0.03139  0.49931  Biso   1.000  K
  K4       1.0000 0.03071  0.55261  0.97810  Biso   1.000  K
  Pb1      1.0000 0.53827  0.36537  0.31964  Biso   1.000  Pb
  Pb2      1.0000 0.53827  0.86537  0.81964  Biso   1.000  Pb
  Pb3      1.0000 0.04573  0.86537  0.32710  Biso   1.000  Pb
  Pb4      1.0000 0.04573  0.36537  0.82710  Biso   1.000  Pb
  Pb5      1.0000 0.04573  0.71863  0.18036  Biso   1.000  Pb
  Pb6      1.0000 0.04573  0.21863  0.68036  Biso   1.000  Pb
  Pb7      1.0000 0.53827  0.21863  0.17290  Biso   1.000  Pb
  Pb8      1.0000 0.53827  0.71863  0.67290  Biso   1.000  Pb
  Nb1      1.0000 0.04200  0.04200  0.00000  Biso   1.000  Nb
  Nb2      1.0000 0.04200  0.54200  0.50000  Biso   1.000  Nb
  Nb3      1.0000 0.54200  0.54200  0.00000  Biso   1.000  Nb
  Nb4      1.0000 0.54200  0.04200  0.50000  Biso   1.000  Nb
  Ta1      1.0000 0.04025  0.18383  0.14358  Biso   1.000  Ta
  Ta2      1.0000 0.04026  0.68383  0.64358  Biso   1.000  Ta
  Ta3      1.0000 0.54374  0.68733  0.14358  Biso   1.000  Ta
  Ta4      1.0000 0.54375  0.18733  0.64358  Biso   1.000  Ta
  Ta5      1.0000 0.04026  0.89667  0.85642  Biso   1.000  Ta
  Ta6      1.0000 0.04025  0.39667  0.35642  Biso   1.000  Ta
  Ta7      1.0000 0.54375  0.40017  0.85642  Biso   1.000  Ta
  Ta8      1.0000 0.54374  0.90017  0.35642  Biso   1.000  Ta
  O1       1.0000 0.29200  0.29200  0.00000  Biso   1.000  O
  O2       1.0000 0.29200  0.79200  0.50000  Biso   1.000  O
  O3       1.0000 0.79200  0.79200  0.00000  Biso   1.000  O
  O4       1.0000 0.79200  0.29200  0.50000  Biso   1.000  O
  O5       1.0000 0.79200  0.04200  0.75000  Biso   1.000  O
  O6       1.0000 0.79200  0.54200  0.25000  Biso   1.000  O
  O7       1.0000 0.29200  0.54200  0.75000  Biso   1.000  O
  O8       1.0000 0.29200  0.04200  0.25000  Biso   1.000  O
  O9       1.0000 0.04373  0.10885  0.06512  Biso   1.000  O
  O10      1.0000 0.04373  0.60885  0.56512  Biso   1.000  O
  O11      1.0000 0.54027  0.60539  0.06512  Biso   1.000  O
  O12      1.0000 0.54027  0.10539  0.56512  Biso   1.000  O
  O13      1.0000 0.04373  0.97861  0.93488  Biso   1.000  O
  O14      1.0000 0.04373  0.47861  0.43488  Biso   1.000  O
  O15      1.0000 0.54027  0.47515  0.93488  Biso   1.000  O
  O16      1.0000 0.54027  0.97515  0.43488  Biso   1.000  O
  O17      1.0000 0.29200  0.42579  0.13379  Biso   1.000  O
  O18      1.0000 0.29200  0.92579  0.63379  Biso   1.000  O
  O19      1.0000 0.79200  0.92057  0.12857  Biso   1.000  O
  O20      1.0000 0.79200  0.42057  0.62857  Biso   1.000  O
  O21      1.0000 0.79200  0.66343  0.87143  Biso   1.000  O
  O22      1.0000 0.79200  0.16343  0.37143  Biso   1.000  O
  O23      1.0000 0.29200  0.15821  0.86621  Biso   1.000  O
  O24      1.0000 0.29200  0.65821  0.36621  Biso   1.000  O
  O25      1.0000 0.79200  0.91082  0.61882  Biso   1.000  O
  O26      1.0000 0.79200  0.41082  0.11882  Biso   1.000  O
  O27      1.0000 0.29200  0.41082  0.61882  Biso   1.000  O
  O28      1.0000 0.29200  0.91082  0.11882  Biso   1.000  O
  O29      1.0000 0.79200  0.17318  0.88118  Biso   1.000  O
  O30      1.0000 0.79200  0.67318  0.38118  Biso   1.000  O
  O31      1.0000 0.29200  0.67318  0.88118  Biso   1.000  O
  O32      1.0000 0.29200  0.17318  0.38118  Biso   1.000  O
  O33      1.0000 0.03731  0.23918  0.20187  Biso   1.000  O
  O34      1.0000 0.03731  0.73918  0.70187  Biso   1.000  O
  O35      1.0000 0.54669  0.74856  0.20187  Biso   1.000  O
  O36      1.0000 0.54669  0.24856  0.70187  Biso   1.000  O
  O37      1.0000 0.03731  0.83544  0.79813  Biso   1.000  O
  O38      1.0000 0.03731  0.33544  0.29813  Biso   1.000  O
  O39      1.0000 0.54669  0.34482  0.79813  Biso   1.000  O
  O40      1.0000 0.54669  0.84482  0.29813  Biso   1.000  O
