data_image0
_cell_length_a       16.1647
_cell_length_b       16.1647
_cell_length_c       16.1647
_cell_angle_alpha    151.885
_cell_angle_beta     151.885
_cell_angle_gamma    40.1819

_symmetry_space_group_name_H-M    "P 1"
_symmetry_int_tables_number       1

loop_
  _symmetry_equiv_pos_as_xyz
  'x, y, z'

loop_
  _atom_site_label
  _atom_site_occupancy
  _atom_site_fract_x
  _atom_site_fract_y
  _atom_site_fract_z
  _atom_site_thermal_displace_type
  _atom_site_B_iso_or_equiv
  _atom_site_type_symbol
  K1       1.0000 0.24114  0.50244  0.26129  Biso   1.000  K
  K2       1.0000 0.75886  0.02015  0.26129  Biso   1.000  K
  K3       1.0000 0.75886  0.49756  0.73871  Biso   1.000  K
  K4       1.0000 0.24114  0.97985  0.73871  Biso   1.000  K
  Pb1      1.0000 0.07286  0.31913  0.24627  Biso   1.000  Pb
  Pb2      1.0000 0.57388  0.82015  0.24627  Biso   1.000  Pb
  Pb3      1.0000 0.57388  0.32761  0.75373  Biso   1.000  Pb
  Pb4      1.0000 0.07286  0.82659  0.75373  Biso   1.000  Pb
  Pb5      1.0000 0.42612  0.17985  0.75373  Biso   1.000  Pb
  Pb6      1.0000 0.92714  0.68087  0.75373  Biso   1.000  Pb
  Pb7      1.0000 0.92714  0.17341  0.24627  Biso   1.000  Pb
  Pb8      1.0000 0.42612  0.67239  0.24627  Biso   1.000  Pb
  Nb1      1.0000 0.74973  0.00000  0.74973  Biso   1.000  Nb
  Nb2      1.0000 0.25027  0.50000  0.75027  Biso   1.000  Nb
  Nb3      1.0000 0.25027  0.00000  0.25027  Biso   1.000  Nb
  Nb4      1.0000 0.74973  0.50000  0.24973  Biso   1.000  Nb
  Ta1      1.0000 0.89262  0.14358  0.74904  Biso   1.000  Ta
  Ta2      1.0000 0.39105  0.64358  0.74747  Biso   1.000  Ta
  Ta3      1.0000 0.39454  0.14358  0.25096  Biso   1.000  Ta
  Ta4      1.0000 0.89611  0.64358  0.25253  Biso   1.000  Ta
  Ta5      1.0000 0.60546  0.85642  0.74904  Biso   1.000  Ta
  Ta6      1.0000 0.10389  0.35642  0.74747  Biso   1.000  Ta
  Ta7      1.0000 0.10738  0.85642  0.25096  Biso   1.000  Ta
  Ta8      1.0000 0.60895  0.35642  0.25253  Biso   1.000  Ta
  O1       1.0000 0.00000  0.00000  0.00000  Biso   1.000  O
  O2       1.0000 0.50000  0.50000  0.00000  Biso   1.000  O
  O3       1.0000 0.50000  0.00000  0.50000  Biso   1.000  O
  O4       1.0000 0.00000  0.50000  0.50000  Biso   1.000  O
  O5       1.0000 0.75011  0.75000  0.50011  Biso   1.000  O
  O6       1.0000 0.24989  0.25000  0.49989  Biso   1.000  O
  O7       1.0000 0.24989  0.75000  0.99989  Biso   1.000  O
  O8       1.0000 0.75011  0.25000  0.00011  Biso   1.000  O
  O9       1.0000 0.81595  0.06512  0.75083  Biso   1.000  O
  O10      1.0000 0.31775  0.56512  0.75263  Biso   1.000  O
  O11      1.0000 0.31429  0.06512  0.24917  Biso   1.000  O
  O12      1.0000 0.81249  0.56512  0.24737  Biso   1.000  O
  O13      1.0000 0.68571  0.93488  0.75083  Biso   1.000  O
  O14      1.0000 0.18751  0.43488  0.75263  Biso   1.000  O
  O15      1.0000 0.18405  0.93488  0.24917  Biso   1.000  O
  O16      1.0000 0.68225  0.43488  0.24737  Biso   1.000  O
  O17      1.0000 0.13191  0.13191  0.00000  Biso   1.000  O
  O18      1.0000 0.63566  0.63566  0.00000  Biso   1.000  O
  O19      1.0000 0.63045  0.13045  0.50000  Biso   1.000  O
  O20      1.0000 0.12670  0.62670  0.50000  Biso   1.000  O
  O21      1.0000 0.36955  0.86955  0.50000  Biso   1.000  O
  O22      1.0000 0.87330  0.37330  0.50000  Biso   1.000  O
  O23      1.0000 0.86809  0.86809  0.00000  Biso   1.000  O
  O24      1.0000 0.36434  0.36434  0.00000  Biso   1.000  O
  O25      1.0000 0.61903  0.61882  0.50021  Biso   1.000  O
  O26      1.0000 0.11862  0.11882  0.49979  Biso   1.000  O
  O27      1.0000 0.11862  0.61882  0.99979  Biso   1.000  O
  O28      1.0000 0.61903  0.11882  0.00021  Biso   1.000  O
  O29      1.0000 0.88138  0.88118  0.50021  Biso   1.000  O
  O30      1.0000 0.38097  0.38118  0.49979  Biso   1.000  O
  O31      1.0000 0.38097  0.88118  0.99979  Biso   1.000  O
  O32      1.0000 0.88138  0.38118  0.00021  Biso   1.000  O
  O33      1.0000 0.95060  0.20187  0.74873  Biso   1.000  O
  O34      1.0000 0.44376  0.70187  0.74189  Biso   1.000  O
  O35      1.0000 0.45314  0.20187  0.25127  Biso   1.000  O
  O36      1.0000 0.95998  0.70187  0.25811  Biso   1.000  O
  O37      1.0000 0.54686  0.79813  0.74873  Biso   1.000  O
  O38      1.0000 0.04002  0.29813  0.74189  Biso   1.000  O
  O39      1.0000 0.04940  0.79813  0.25127  Biso   1.000  O
  O40      1.0000 0.55624  0.29813  0.25811  Biso   1.000  O
