data_image0
_cell_length_a       5.55277
_cell_length_b       30.3622
_cell_length_c       5.55277
_cell_angle_alpha    90
_cell_angle_beta     90
_cell_angle_gamma    90

_symmetry_space_group_name_H-M    "P 1"
_symmetry_int_tables_number       1

loop_
  _symmetry_equiv_pos_as_xyz
  'x, y, z'

loop_
  _atom_site_label
  _atom_site_occupancy
  _atom_site_fract_x
  _atom_site_fract_y
  _atom_site_fract_z
  _atom_site_thermal_displace_type
  _atom_site_B_iso_or_equiv
  _atom_site_type_symbol
  K1       1.0000 0.26129  0.00000  0.76129  Biso   1.000  K
  K2       1.0000 0.26129  0.50000  0.76129  Biso   1.000  K
  K3       1.0000 0.73871  0.00000  0.23871  Biso   1.000  K
  K4       1.0000 0.73871  0.50000  0.23871  Biso   1.000  K
  Pb1      1.0000 0.24538  0.82337  0.74288  Biso   1.000  Pb
  Pb2      1.0000 0.24716  0.32337  0.74966  Biso   1.000  Pb
  Pb3      1.0000 0.75284  0.82337  0.25034  Biso   1.000  Pb
  Pb4      1.0000 0.75462  0.32337  0.25712  Biso   1.000  Pb
  Pb5      1.0000 0.75284  0.67663  0.25034  Biso   1.000  Pb
  Pb6      1.0000 0.75462  0.17663  0.25712  Biso   1.000  Pb
  Pb7      1.0000 0.24538  0.67663  0.74288  Biso   1.000  Pb
  Pb8      1.0000 0.24716  0.17663  0.74966  Biso   1.000  Pb
  Nb1      1.0000 0.75045  0.75000  0.74841  Biso   1.000  Nb
  Nb2      1.0000 0.74955  0.25000  0.75159  Biso   1.000  Nb
  Nb3      1.0000 0.25045  0.75000  0.24841  Biso   1.000  Nb
  Nb4      1.0000 0.24955  0.25000  0.25159  Biso   1.000  Nb
  Ta1      1.0000 0.74246  0.89358  0.74518  Biso   1.000  Ta
  Ta2      1.0000 0.75406  0.39358  0.75831  Biso   1.000  Ta
  Ta3      1.0000 0.24594  0.89358  0.24169  Biso   1.000  Ta
  Ta4      1.0000 0.25754  0.39358  0.25482  Biso   1.000  Ta
  Ta5      1.0000 0.74246  0.60642  0.74518  Biso   1.000  Ta
  Ta6      1.0000 0.75406  0.10642  0.75831  Biso   1.000  Ta
  Ta7      1.0000 0.24594  0.60642  0.24169  Biso   1.000  Ta
  Ta8      1.0000 0.25754  0.10642  0.25482  Biso   1.000  Ta
  O1       1.0000 0.99304  0.75000  0.49365  Biso   1.000  O
  O2       1.0000 0.00696  0.25000  0.50635  Biso   1.000  O
  O3       1.0000 0.49304  0.75000  0.99365  Biso   1.000  O
  O4       1.0000 0.50696  0.25000  0.00635  Biso   1.000  O
  O5       1.0000 0.49535  0.75000  0.49725  Biso   1.000  O
  O6       1.0000 0.50465  0.25000  0.50275  Biso   1.000  O
  O7       1.0000 0.99535  0.75000  0.99725  Biso   1.000  O
  O8       1.0000 0.00465  0.25000  0.00275  Biso   1.000  O
  O9       1.0000 0.74709  0.81512  0.74440  Biso   1.000  O
  O10      1.0000 0.75637  0.31512  0.75214  Biso   1.000  O
  O11      1.0000 0.24363  0.81512  0.24786  Biso   1.000  O
  O12      1.0000 0.25291  0.31512  0.25560  Biso   1.000  O
  O13      1.0000 0.74709  0.68488  0.74440  Biso   1.000  O
  O14      1.0000 0.75637  0.18488  0.75214  Biso   1.000  O
  O15      1.0000 0.24363  0.68488  0.24786  Biso   1.000  O
  O16      1.0000 0.25291  0.18488  0.25560  Biso   1.000  O
  O17      1.0000 0.99726  0.88379  0.49726  Biso   1.000  O
  O18      1.0000 0.00274  0.38379  0.50274  Biso   1.000  O
  O19      1.0000 0.49726  0.87857  0.99726  Biso   1.000  O
  O20      1.0000 0.50274  0.37857  0.00274  Biso   1.000  O
  O21      1.0000 0.49726  0.62143  0.99726  Biso   1.000  O
  O22      1.0000 0.50274  0.12143  0.00274  Biso   1.000  O
  O23      1.0000 0.99726  0.61621  0.49726  Biso   1.000  O
  O24      1.0000 0.00274  0.11621  0.50274  Biso   1.000  O
  O25      1.0000 0.49752  0.61882  0.49769  Biso   1.000  O
  O26      1.0000 0.50248  0.11882  0.50231  Biso   1.000  O
  O27      1.0000 0.99752  0.61882  0.99769  Biso   1.000  O
  O28      1.0000 0.00248  0.11882  0.00231  Biso   1.000  O
  O29      1.0000 0.49752  0.88118  0.49769  Biso   1.000  O
  O30      1.0000 0.50248  0.38118  0.50231  Biso   1.000  O
  O31      1.0000 0.99752  0.88118  0.99769  Biso   1.000  O
  O32      1.0000 0.00248  0.38118  0.00231  Biso   1.000  O
  O33      1.0000 0.74290  0.95187  0.75207  Biso   1.000  O
  O34      1.0000 0.74771  0.45187  0.75731  Biso   1.000  O
  O35      1.0000 0.25229  0.95187  0.24269  Biso   1.000  O
  O36      1.0000 0.25710  0.45187  0.24793  Biso   1.000  O
  O37      1.0000 0.74290  0.54813  0.75207  Biso   1.000  O
  O38      1.0000 0.74771  0.04813  0.75731  Biso   1.000  O
  O39      1.0000 0.25229  0.54813  0.24269  Biso   1.000  O
  O40      1.0000 0.25710  0.04813  0.24793  Biso   1.000  O
