data_image0
_cell_length_a       7.8528
_cell_length_b       7.8528
_cell_length_c       16.1647
_cell_angle_alpha    104.058
_cell_angle_beta     104.058
_cell_angle_gamma    90

_symmetry_space_group_name_H-M    "P 1"
_symmetry_int_tables_number       1

loop_
  _symmetry_equiv_pos_as_xyz
  'x, y, z'

loop_
  _atom_site_label
  _atom_site_occupancy
  _atom_site_fract_x
  _atom_site_fract_y
  _atom_site_fract_z
  _atom_site_thermal_displace_type
  _atom_site_B_iso_or_equiv
  _atom_site_type_symbol
  K1       1.0000 0.73939  0.26061  0.50000  Biso   1.000  K
  K2       1.0000 0.26061  0.73939  0.50000  Biso   1.000  K
  K3       1.0000 0.76061  0.76061  0.50000  Biso   1.000  K
  K4       1.0000 0.23939  0.23939  0.50000  Biso   1.000  K
  Pb1      1.0000 0.92898  0.42898  0.85326  Biso   1.000  Pb
  Pb2      1.0000 0.42898  0.92898  0.85326  Biso   1.000  Pb
  Pb3      1.0000 0.92428  0.92428  0.85326  Biso   1.000  Pb
  Pb4      1.0000 0.42428  0.42428  0.85326  Biso   1.000  Pb
  Pb5      1.0000 0.07572  0.07572  0.14674  Biso   1.000  Pb
  Pb6      1.0000 0.57572  0.57572  0.14674  Biso   1.000  Pb
  Pb7      1.0000 0.07102  0.57102  0.14674  Biso   1.000  Pb
  Pb8      1.0000 0.57102  0.07102  0.14674  Biso   1.000  Pb
  Nb1      1.0000 0.75000  0.75000  0.00000  Biso   1.000  Nb
  Nb2      1.0000 0.25000  0.25000  0.00000  Biso   1.000  Nb
  Nb3      1.0000 0.75000  0.25000  0.00000  Biso   1.000  Nb
  Nb4      1.0000 0.25000  0.75000  0.00000  Biso   1.000  Nb
  Ta1      1.0000 0.60589  0.60589  0.71284  Biso   1.000  Ta
  Ta2      1.0000 0.10589  0.10589  0.71284  Biso   1.000  Ta
  Ta3      1.0000 0.60695  0.10695  0.71284  Biso   1.000  Ta
  Ta4      1.0000 0.10695  0.60695  0.71284  Biso   1.000  Ta
  Ta5      1.0000 0.89411  0.89411  0.28716  Biso   1.000  Ta
  Ta6      1.0000 0.39411  0.39411  0.28716  Biso   1.000  Ta
  Ta7      1.0000 0.89305  0.39305  0.28716  Biso   1.000  Ta
  Ta8      1.0000 0.39305  0.89305  0.28716  Biso   1.000  Ta
  O1       1.0000 0.74670  0.49670  0.99339  Biso   1.000  O
  O2       1.0000 0.24670  0.99670  0.99339  Biso   1.000  O
  O3       1.0000 0.75330  0.00330  0.00661  Biso   1.000  O
  O4       1.0000 0.25330  0.50330  0.00661  Biso   1.000  O
  O5       1.0000 0.49670  0.74670  0.99339  Biso   1.000  O
  O6       1.0000 0.99670  0.24670  0.99339  Biso   1.000  O
  O7       1.0000 0.50330  0.25330  0.00661  Biso   1.000  O
  O8       1.0000 0.00330  0.75330  0.00661  Biso   1.000  O
  O9       1.0000 0.68803  0.68803  0.86976  Biso   1.000  O
  O10      1.0000 0.18803  0.18803  0.86976  Biso   1.000  O
  O11      1.0000 0.68173  0.18173  0.86976  Biso   1.000  O
  O12      1.0000 0.18173  0.68173  0.86976  Biso   1.000  O
  O13      1.0000 0.81197  0.81197  0.13024  Biso   1.000  O
  O14      1.0000 0.31197  0.31197  0.13024  Biso   1.000  O
  O15      1.0000 0.81827  0.31827  0.13024  Biso   1.000  O
  O16      1.0000 0.31827  0.81827  0.13024  Biso   1.000  O
  O17      1.0000 0.62067  0.37067  0.74135  Biso   1.000  O
  O18      1.0000 0.12067  0.87067  0.74135  Biso   1.000  O
  O19      1.0000 0.61697  0.86697  0.73393  Biso   1.000  O
  O20      1.0000 0.11697  0.36697  0.73393  Biso   1.000  O
  O21      1.0000 0.87933  0.12933  0.25865  Biso   1.000  O
  O22      1.0000 0.37933  0.62933  0.25865  Biso   1.000  O
  O23      1.0000 0.88303  0.63303  0.26607  Biso   1.000  O
  O24      1.0000 0.38303  0.13303  0.26607  Biso   1.000  O
  O25      1.0000 0.63303  0.88303  0.26607  Biso   1.000  O
  O26      1.0000 0.13303  0.38303  0.26607  Biso   1.000  O
  O27      1.0000 0.62933  0.37933  0.25865  Biso   1.000  O
  O28      1.0000 0.12933  0.87933  0.25865  Biso   1.000  O
  O29      1.0000 0.37067  0.62067  0.74135  Biso   1.000  O
  O30      1.0000 0.87067  0.12067  0.74135  Biso   1.000  O
  O31      1.0000 0.36697  0.11697  0.73393  Biso   1.000  O
  O32      1.0000 0.86697  0.61697  0.73393  Biso   1.000  O
  O33      1.0000 0.54626  0.54626  0.59626  Biso   1.000  O
  O34      1.0000 0.04626  0.04626  0.59626  Biso   1.000  O
  O35      1.0000 0.55000  0.05000  0.59626  Biso   1.000  O
  O36      1.0000 0.05000  0.55000  0.59626  Biso   1.000  O
  O37      1.0000 0.95374  0.95374  0.40374  Biso   1.000  O
  O38      1.0000 0.45374  0.45374  0.40374  Biso   1.000  O
  O39      1.0000 0.95000  0.45000  0.40374  Biso   1.000  O
  O40      1.0000 0.45000  0.95000  0.40374  Biso   1.000  O
