data_image0
_cell_length_a       16.1647
_cell_length_b       7.8528
_cell_length_c       16.1647
_cell_angle_alpha    75.9423
_cell_angle_beta     28.1154
_cell_angle_gamma    75.9423

_symmetry_space_group_name_H-M    "P 1"
_symmetry_int_tables_number       1

loop_
  _symmetry_equiv_pos_as_xyz
  'x, y, z'

loop_
  _atom_site_label
  _atom_site_occupancy
  _atom_site_fract_x
  _atom_site_fract_y
  _atom_site_fract_z
  _atom_site_thermal_displace_type
  _atom_site_B_iso_or_equiv
  _atom_site_type_symbol
  K1       1.0000 0.02575  0.54696  0.97425  Biso   1.000  K
  K2       1.0000 0.54696  0.02575  0.45304  Biso   1.000  K
  K3       1.0000 0.53704  0.53704  0.46296  Biso   1.000  K
  K4       1.0000 0.05825  0.05825  0.94175  Biso   1.000  K
  Pb1      1.0000 0.86723  0.72049  0.77951  Biso   1.000  Pb
  Pb2      1.0000 0.36723  0.22049  0.27951  Biso   1.000  Pb
  Pb3      1.0000 0.36351  0.71677  0.28323  Biso   1.000  Pb
  Pb4      1.0000 0.86351  0.21677  0.78323  Biso   1.000  Pb
  Pb5      1.0000 0.21677  0.86351  0.13649  Biso   1.000  Pb
  Pb6      1.0000 0.71677  0.36351  0.63649  Biso   1.000  Pb
  Pb7      1.0000 0.72049  0.86723  0.63277  Biso   1.000  Pb
  Pb8      1.0000 0.22049  0.36723  0.13277  Biso   1.000  Pb
  Nb1      1.0000 0.54200  0.04200  0.95800  Biso   1.000  Nb
  Nb2      1.0000 0.04200  0.54200  0.45800  Biso   1.000  Nb
  Nb3      1.0000 0.04200  0.04200  0.45800  Biso   1.000  Nb
  Nb4      1.0000 0.54200  0.54200  0.95800  Biso   1.000  Nb
  Ta1      1.0000 0.68471  0.89755  0.10245  Biso   1.000  Ta
  Ta2      1.0000 0.18471  0.39755  0.60245  Biso   1.000  Ta
  Ta3      1.0000 0.18645  0.89929  0.60071  Biso   1.000  Ta
  Ta4      1.0000 0.68645  0.39929  0.10071  Biso   1.000  Ta
  Ta5      1.0000 0.39755  0.18471  0.81529  Biso   1.000  Ta
  Ta6      1.0000 0.89755  0.68471  0.31529  Biso   1.000  Ta
  Ta7      1.0000 0.89929  0.18645  0.31355  Biso   1.000  Ta
  Ta8      1.0000 0.39929  0.68645  0.81355  Biso   1.000  Ta
  O1       1.0000 0.79200  0.04200  0.70800  Biso   1.000  O
  O2       1.0000 0.29200  0.54200  0.20800  Biso   1.000  O
  O3       1.0000 0.29200  0.04200  0.20800  Biso   1.000  O
  O4       1.0000 0.79200  0.54200  0.70800  Biso   1.000  O
  O5       1.0000 0.54200  0.29200  0.95800  Biso   1.000  O
  O6       1.0000 0.04200  0.79200  0.45800  Biso   1.000  O
  O7       1.0000 0.04200  0.29200  0.45800  Biso   1.000  O
  O8       1.0000 0.54200  0.79200  0.95800  Biso   1.000  O
  O9       1.0000 0.60799  0.97775  0.02225  Biso   1.000  O
  O10      1.0000 0.10799  0.47775  0.52225  Biso   1.000  O
  O11      1.0000 0.10625  0.97601  0.52399  Biso   1.000  O
  O12      1.0000 0.60625  0.47601  0.02399  Biso   1.000  O
  O13      1.0000 0.47775  0.10799  0.89201  Biso   1.000  O
  O14      1.0000 0.97775  0.60799  0.39201  Biso   1.000  O
  O15      1.0000 0.97601  0.10625  0.39375  Biso   1.000  O
  O16      1.0000 0.47601  0.60625  0.89375  Biso   1.000  O
  O17      1.0000 0.92448  0.90952  0.84048  Biso   1.000  O
  O18      1.0000 0.42448  0.40952  0.34048  Biso   1.000  O
  O19      1.0000 0.42188  0.91212  0.33788  Biso   1.000  O
  O20      1.0000 0.92188  0.41212  0.83788  Biso   1.000  O
  O21      1.0000 0.16212  0.17188  0.07812  Biso   1.000  O
  O22      1.0000 0.66212  0.67188  0.57812  Biso   1.000  O
  O23      1.0000 0.65952  0.17448  0.57552  Biso   1.000  O
  O24      1.0000 0.15952  0.67448  0.07552  Biso   1.000  O
  O25      1.0000 0.40952  0.42448  0.82552  Biso   1.000  O
  O26      1.0000 0.90952  0.92448  0.32552  Biso   1.000  O
  O27      1.0000 0.91212  0.42188  0.32812  Biso   1.000  O
  O28      1.0000 0.41212  0.92188  0.82812  Biso   1.000  O
  O29      1.0000 0.67448  0.15952  0.09048  Biso   1.000  O
  O30      1.0000 0.17448  0.65952  0.59048  Biso   1.000  O
  O31      1.0000 0.17188  0.16212  0.58788  Biso   1.000  O
  O32      1.0000 0.67188  0.66212  0.08788  Biso   1.000  O
  O33      1.0000 0.74152  0.83778  0.16222  Biso   1.000  O
  O34      1.0000 0.24152  0.33778  0.66222  Biso   1.000  O
  O35      1.0000 0.24622  0.84248  0.65752  Biso   1.000  O
  O36      1.0000 0.74622  0.34248  0.15752  Biso   1.000  O
  O37      1.0000 0.33778  0.24152  0.75848  Biso   1.000  O
  O38      1.0000 0.83778  0.74152  0.25848  Biso   1.000  O
  O39      1.0000 0.84248  0.24622  0.25378  Biso   1.000  O
  O40      1.0000 0.34248  0.74622  0.75378  Biso   1.000  O
