data_image0
_cell_length_a       16.1647
_cell_length_b       16.1647
_cell_length_c       16.1647
_cell_angle_alpha    40.1819
_cell_angle_beta     151.885
_cell_angle_gamma    151.885

_symmetry_space_group_name_H-M    "P 1"
_symmetry_int_tables_number       1

loop_
  _symmetry_equiv_pos_as_xyz
  'x, y, z'

loop_
  _atom_site_label
  _atom_site_occupancy
  _atom_site_fract_x
  _atom_site_fract_y
  _atom_site_fract_z
  _atom_site_thermal_displace_type
  _atom_site_B_iso_or_equiv
  _atom_site_type_symbol
  K1       1.0000 0.52079  0.03139  0.98939  Biso   1.000  K
  K2       1.0000 0.56321  0.55261  0.51061  Biso   1.000  K
  K3       1.0000 0.04200  0.05261  0.48939  Biso   1.000  K
  K4       1.0000 0.04200  0.53139  0.01061  Biso   1.000  K
  Pb1      1.0000 0.53803  0.21466  0.17663  Biso   1.000  Pb
  Pb2      1.0000 0.53803  0.71466  0.67663  Biso   1.000  Pb
  Pb3      1.0000 0.03803  0.21466  0.67663  Biso   1.000  Pb
  Pb4      1.0000 0.03803  0.71466  0.17663  Biso   1.000  Pb
  Pb5      1.0000 0.03803  0.36140  0.82337  Biso   1.000  Pb
  Pb6      1.0000 0.03803  0.86140  0.32337  Biso   1.000  Pb
  Pb7      1.0000 0.53803  0.36140  0.32337  Biso   1.000  Pb
  Pb8      1.0000 0.53803  0.86140  0.82337  Biso   1.000  Pb
  Nb1      1.0000 0.03811  0.03811  0.00000  Biso   1.000  Nb
  Nb2      1.0000 0.03811  0.53811  0.50000  Biso   1.000  Nb
  Nb3      1.0000 0.53811  0.03811  0.50000  Biso   1.000  Nb
  Nb4      1.0000 0.53811  0.53811  0.00000  Biso   1.000  Nb
  Ta1      1.0000 0.03943  0.89585  0.85642  Biso   1.000  Ta
  Ta2      1.0000 0.03943  0.39585  0.35642  Biso   1.000  Ta
  Ta3      1.0000 0.53943  0.89585  0.35642  Biso   1.000  Ta
  Ta4      1.0000 0.53943  0.39585  0.85642  Biso   1.000  Ta
  Ta5      1.0000 0.03943  0.18301  0.14358  Biso   1.000  Ta
  Ta6      1.0000 0.03943  0.68301  0.64358  Biso   1.000  Ta
  Ta7      1.0000 0.53943  0.18301  0.64358  Biso   1.000  Ta
  Ta8      1.0000 0.53943  0.68301  0.14358  Biso   1.000  Ta
  O1       1.0000 0.29108  0.04108  0.25000  Biso   1.000  O
  O2       1.0000 0.29108  0.54108  0.75000  Biso   1.000  O
  O3       1.0000 0.79108  0.04108  0.75000  Biso   1.000  O
  O4       1.0000 0.79108  0.54108  0.25000  Biso   1.000  O
  O5       1.0000 0.78997  0.78997  0.00000  Biso   1.000  O
  O6       1.0000 0.78997  0.28997  0.50000  Biso   1.000  O
  O7       1.0000 0.28997  0.78997  0.50000  Biso   1.000  O
  O8       1.0000 0.28997  0.28997  0.00000  Biso   1.000  O
  O9       1.0000 0.04010  0.97498  0.93488  Biso   1.000  O
  O10      1.0000 0.04010  0.47498  0.43488  Biso   1.000  O
  O11      1.0000 0.54010  0.97498  0.43488  Biso   1.000  O
  O12      1.0000 0.54010  0.47498  0.93488  Biso   1.000  O
  O13      1.0000 0.04010  0.10522  0.06512  Biso   1.000  O
  O14      1.0000 0.04010  0.60522  0.56512  Biso   1.000  O
  O15      1.0000 0.54010  0.10522  0.56512  Biso   1.000  O
  O16      1.0000 0.54010  0.60522  0.06512  Biso   1.000  O
  O17      1.0000 0.28960  0.90842  0.11882  Biso   1.000  O
  O18      1.0000 0.28960  0.40842  0.61882  Biso   1.000  O
  O19      1.0000 0.78960  0.90842  0.61882  Biso   1.000  O
  O20      1.0000 0.78960  0.40842  0.11882  Biso   1.000  O
  O21      1.0000 0.78960  0.17078  0.88118  Biso   1.000  O
  O22      1.0000 0.78960  0.67078  0.38118  Biso   1.000  O
  O23      1.0000 0.28960  0.17078  0.38118  Biso   1.000  O
  O24      1.0000 0.28960  0.67078  0.88118  Biso   1.000  O
  O25      1.0000 0.78946  0.92064  0.13118  Biso   1.000  O
  O26      1.0000 0.78946  0.42064  0.63118  Biso   1.000  O
  O27      1.0000 0.28946  0.92064  0.63118  Biso   1.000  O
  O28      1.0000 0.28946  0.42064  0.13118  Biso   1.000  O
  O29      1.0000 0.78946  0.65828  0.86882  Biso   1.000  O
  O30      1.0000 0.78946  0.15828  0.36882  Biso   1.000  O
  O31      1.0000 0.28946  0.65828  0.36882  Biso   1.000  O
  O32      1.0000 0.28946  0.15828  0.86882  Biso   1.000  O
  O33      1.0000 0.03917  0.83730  0.79813  Biso   1.000  O
  O34      1.0000 0.03917  0.33730  0.29813  Biso   1.000  O
  O35      1.0000 0.53917  0.83730  0.29813  Biso   1.000  O
  O36      1.0000 0.53917  0.33730  0.79813  Biso   1.000  O
  O37      1.0000 0.03917  0.24104  0.20187  Biso   1.000  O
  O38      1.0000 0.03917  0.74104  0.70187  Biso   1.000  O
  O39      1.0000 0.53917  0.24104  0.70187  Biso   1.000  O
  O40      1.0000 0.53917  0.74104  0.20187  Biso   1.000  O
