data_image0
_cell_length_a       16.1647
_cell_length_b       16.1647
_cell_length_c       16.1647
_cell_angle_alpha    151.885
_cell_angle_beta     151.885
_cell_angle_gamma    40.1819

_symmetry_space_group_name_H-M    "P 1"
_symmetry_int_tables_number       1

loop_
  _symmetry_equiv_pos_as_xyz
  'x, y, z'

loop_
  _atom_site_label
  _atom_site_occupancy
  _atom_site_fract_x
  _atom_site_fract_y
  _atom_site_fract_z
  _atom_site_thermal_displace_type
  _atom_site_B_iso_or_equiv
  _atom_site_type_symbol
  K1       1.0000 0.23939  0.73939  0.97879  Biso   1.000  K
  K2       1.0000 0.76061  0.26061  0.02121  Biso   1.000  K
  K3       1.0000 0.73939  0.76061  0.50000  Biso   1.000  K
  K4       1.0000 0.26061  0.23939  0.50000  Biso   1.000  K
  Pb1      1.0000 0.07337  0.57337  1.00000  Biso   1.000  Pb
  Pb2      1.0000 0.57337  0.07337  0.00000  Biso   1.000  Pb
  Pb3      1.0000 0.57337  0.57337  0.50000  Biso   1.000  Pb
  Pb4      1.0000 0.07337  0.07337  0.50000  Biso   1.000  Pb
  Pb5      1.0000 0.42663  0.42663  0.50000  Biso   1.000  Pb
  Pb6      1.0000 0.92663  0.92663  0.50000  Biso   1.000  Pb
  Pb7      1.0000 0.92663  0.42663  0.00000  Biso   1.000  Pb
  Pb8      1.0000 0.42663  0.92663  0.00000  Biso   1.000  Pb
  Nb1      1.0000 0.75000  0.25000  0.50000  Biso   1.000  Nb
  Nb2      1.0000 0.25000  0.75000  0.50000  Biso   1.000  Nb
  Nb3      1.0000 0.25000  0.25000  0.00000  Biso   1.000  Nb
  Nb4      1.0000 0.75000  0.75000  0.00000  Biso   1.000  Nb
  Ta1      1.0000 0.89358  0.39358  0.50000  Biso   1.000  Ta
  Ta2      1.0000 0.39358  0.89358  0.50000  Biso   1.000  Ta
  Ta3      1.0000 0.39358  0.39358  0.00000  Biso   1.000  Ta
  Ta4      1.0000 0.89358  0.89358  0.00000  Biso   1.000  Ta
  Ta5      1.0000 0.60642  0.10642  0.50000  Biso   1.000  Ta
  Ta6      1.0000 0.10642  0.60642  0.50000  Biso   1.000  Ta
  Ta7      1.0000 0.10642  0.10642  0.00000  Biso   1.000  Ta
  Ta8      1.0000 0.60642  0.60642  0.00000  Biso   1.000  Ta
  O1       1.0000 0.00000  0.25000  0.75000  Biso   1.000  O
  O2       1.0000 0.50000  0.75000  0.75000  Biso   1.000  O
  O3       1.0000 0.50000  0.25000  0.25000  Biso   1.000  O
  O4       1.0000 0.00000  0.75000  0.25000  Biso   1.000  O
  O5       1.0000 0.75000  0.00000  0.25000  Biso   1.000  O
  O6       1.0000 0.25000  0.50000  0.25000  Biso   1.000  O
  O7       1.0000 0.25000  0.00000  0.75000  Biso   1.000  O
  O8       1.0000 0.75000  0.50000  0.75000  Biso   1.000  O
  O9       1.0000 0.81512  0.31512  0.50000  Biso   1.000  O
  O10      1.0000 0.31512  0.81512  0.50000  Biso   1.000  O
  O11      1.0000 0.31512  0.31512  0.00000  Biso   1.000  O
  O12      1.0000 0.81512  0.81512  0.00000  Biso   1.000  O
  O13      1.0000 0.68488  0.18488  0.50000  Biso   1.000  O
  O14      1.0000 0.18488  0.68488  0.50000  Biso   1.000  O
  O15      1.0000 0.18488  0.18488  0.00000  Biso   1.000  O
  O16      1.0000 0.68488  0.68488  0.00000  Biso   1.000  O
  O17      1.0000 0.13118  0.38118  0.75000  Biso   1.000  O
  O18      1.0000 0.63118  0.88118  0.75000  Biso   1.000  O
  O19      1.0000 0.63118  0.38118  0.25000  Biso   1.000  O
  O20      1.0000 0.13118  0.88118  0.25000  Biso   1.000  O
  O21      1.0000 0.36882  0.11882  0.25000  Biso   1.000  O
  O22      1.0000 0.86882  0.61882  0.25000  Biso   1.000  O
  O23      1.0000 0.86882  0.11882  0.75000  Biso   1.000  O
  O24      1.0000 0.36882  0.61882  0.75000  Biso   1.000  O
  O25      1.0000 0.61882  0.86882  0.25000  Biso   1.000  O
  O26      1.0000 0.11882  0.36882  0.25000  Biso   1.000  O
  O27      1.0000 0.11882  0.86882  0.75000  Biso   1.000  O
  O28      1.0000 0.61882  0.36882  0.75000  Biso   1.000  O
  O29      1.0000 0.88118  0.13118  0.25000  Biso   1.000  O
  O30      1.0000 0.38118  0.63118  0.25000  Biso   1.000  O
  O31      1.0000 0.38118  0.13118  0.75000  Biso   1.000  O
  O32      1.0000 0.88118  0.63118  0.75000  Biso   1.000  O
  O33      1.0000 0.95187  0.45187  0.50000  Biso   1.000  O
  O34      1.0000 0.45187  0.95187  0.50000  Biso   1.000  O
  O35      1.0000 0.45187  0.45187  0.00000  Biso   1.000  O
  O36      1.0000 0.95187  0.95187  0.00000  Biso   1.000  O
  O37      1.0000 0.54813  0.04813  0.50000  Biso   1.000  O
  O38      1.0000 0.04813  0.54813  0.50000  Biso   1.000  O
  O39      1.0000 0.04813  0.04813  0.00000  Biso   1.000  O
  O40      1.0000 0.54813  0.54813  0.00000  Biso   1.000  O
