data_image0
_cell_length_a       7.8528
_cell_length_b       30.3622
_cell_length_c       7.8528
_cell_angle_alpha    90
_cell_angle_beta     90
_cell_angle_gamma    90

_symmetry_space_group_name_H-M    "P 1"
_symmetry_int_tables_number       1

loop_
  _symmetry_equiv_pos_as_xyz
  'x, y, z'

loop_
  _atom_site_label
  _atom_site_occupancy
  _atom_site_fract_x
  _atom_site_fract_y
  _atom_site_fract_z
  _atom_site_thermal_displace_type
  _atom_site_B_iso_or_equiv
  _atom_site_type_symbol
  K1       1.0000 0.00000  0.23229  0.26061  Biso   1.000  K
  K2       1.0000 0.00000  0.76771  0.26061  Biso   1.000  K
  K3       1.0000 0.50000  0.25000  0.23939  Biso   1.000  K
  K4       1.0000 0.50000  0.75000  0.23939  Biso   1.000  K
  K5       1.0000 0.00000  0.25000  0.76061  Biso   1.000  K
  K6       1.0000 0.00000  0.75000  0.76061  Biso   1.000  K
  K7       1.0000 0.50000  0.26771  0.73939  Biso   1.000  K
  K8       1.0000 0.50000  0.73229  0.73939  Biso   1.000  K
  Pb1      1.0000 0.00000  0.07235  0.25000  Biso   1.000  Pb
  Pb2      1.0000 0.00000  0.57439  0.25000  Biso   1.000  Pb
  Pb3      1.0000 0.50000  0.07337  0.25000  Biso   1.000  Pb
  Pb4      1.0000 0.50000  0.57337  0.25000  Biso   1.000  Pb
  Pb5      1.0000 0.00000  0.07337  0.75000  Biso   1.000  Pb
  Pb6      1.0000 0.00000  0.57337  0.75000  Biso   1.000  Pb
  Pb7      1.0000 0.50000  0.07439  0.75000  Biso   1.000  Pb
  Pb8      1.0000 0.50000  0.57235  0.75000  Biso   1.000  Pb
  Pb9      1.0000 0.50000  0.92663  0.25000  Biso   1.000  Pb
  Pb10     1.0000 0.50000  0.42663  0.25000  Biso   1.000  Pb
  Pb11     1.0000 0.00000  0.92765  0.25000  Biso   1.000  Pb
  Pb12     1.0000 0.00000  0.42561  0.25000  Biso   1.000  Pb
  Pb13     1.0000 0.50000  0.92561  0.75000  Biso   1.000  Pb
  Pb14     1.0000 0.50000  0.42765  0.75000  Biso   1.000  Pb
  Pb15     1.0000 0.00000  0.92663  0.75000  Biso   1.000  Pb
  Pb16     1.0000 0.00000  0.42663  0.75000  Biso   1.000  Pb
  Nb1      1.0000 0.74973  0.00000  0.99973  Biso   1.000  Nb
  Nb2      1.0000 0.75027  0.50000  0.00027  Biso   1.000  Nb
  Nb3      1.0000 0.25027  0.00000  0.99973  Biso   1.000  Nb
  Nb4      1.0000 0.24973  0.50000  0.00027  Biso   1.000  Nb
  Nb5      1.0000 0.74973  0.00000  0.50027  Biso   1.000  Nb
  Nb6      1.0000 0.75027  0.50000  0.49973  Biso   1.000  Nb
  Nb7      1.0000 0.25027  0.00000  0.50027  Biso   1.000  Nb
  Nb8      1.0000 0.24973  0.50000  0.49973  Biso   1.000  Nb
  Ta1      1.0000 0.75079  0.14358  0.00079  Biso   1.000  Ta
  Ta2      1.0000 0.74921  0.64358  0.99921  Biso   1.000  Ta
  Ta3      1.0000 0.24921  0.14358  0.00079  Biso   1.000  Ta
  Ta4      1.0000 0.25079  0.64358  0.99921  Biso   1.000  Ta
  Ta5      1.0000 0.75079  0.14358  0.49921  Biso   1.000  Ta
  Ta6      1.0000 0.74921  0.64358  0.50079  Biso   1.000  Ta
  Ta7      1.0000 0.24921  0.14358  0.49921  Biso   1.000  Ta
  Ta8      1.0000 0.25079  0.64358  0.50079  Biso   1.000  Ta
  Ta9      1.0000 0.75079  0.85642  0.00079  Biso   1.000  Ta
  Ta10     1.0000 0.74921  0.35642  0.99921  Biso   1.000  Ta
  Ta11     1.0000 0.24921  0.85642  0.00079  Biso   1.000  Ta
  Ta12     1.0000 0.25079  0.35642  0.99921  Biso   1.000  Ta
  Ta13     1.0000 0.75079  0.85642  0.49921  Biso   1.000  Ta
  Ta14     1.0000 0.74921  0.35642  0.50079  Biso   1.000  Ta
  Ta15     1.0000 0.24921  0.85642  0.49921  Biso   1.000  Ta
  Ta16     1.0000 0.25079  0.35642  0.50079  Biso   1.000  Ta
  O1       1.0000 0.00000  0.00000  0.00011  Biso   1.000  O
  O2       1.0000 0.00000  0.50000  0.99989  Biso   1.000  O
  O3       1.0000 0.50000  0.00000  0.00011  Biso   1.000  O
  O4       1.0000 0.50000  0.50000  0.99989  Biso   1.000  O
  O5       1.0000 0.00000  0.00000  0.49989  Biso   1.000  O
  O6       1.0000 0.00000  0.50000  0.50011  Biso   1.000  O
  O7       1.0000 0.50000  0.00000  0.49989  Biso   1.000  O
  O8       1.0000 0.50000  0.50000  0.50011  Biso   1.000  O
  O9       1.0000 0.75011  0.00000  0.75000  Biso   1.000  O
  O10      1.0000 0.74989  0.50000  0.75000  Biso   1.000  O
  O11      1.0000 0.24989  0.00000  0.75000  Biso   1.000  O
  O12      1.0000 0.25011  0.50000  0.75000  Biso   1.000  O
  O13      1.0000 0.75011  0.00000  0.25000  Biso   1.000  O
  O14      1.0000 0.74989  0.50000  0.25000  Biso   1.000  O
  O15      1.0000 0.24989  0.00000  0.25000  Biso   1.000  O
  O16      1.0000 0.25011  0.50000  0.25000  Biso   1.000  O
  O17      1.0000 0.74910  0.06512  0.99910  Biso   1.000  O
  O18      1.0000 0.75090  0.56512  0.00090  Biso   1.000  O
  O19      1.0000 0.25090  0.06512  0.99910  Biso   1.000  O
  O20      1.0000 0.24910  0.56512  0.00090  Biso   1.000  O
  O21      1.0000 0.74910  0.06512  0.50090  Biso   1.000  O
  O22      1.0000 0.75090  0.56512  0.49910  Biso   1.000  O
  O23      1.0000 0.25090  0.06512  0.50090  Biso   1.000  O
  O24      1.0000 0.24910  0.56512  0.49910  Biso   1.000  O
  O25      1.0000 0.74910  0.93488  0.99910  Biso   1.000  O
  O26      1.0000 0.75090  0.43488  0.00090  Biso   1.000  O
  O27      1.0000 0.25090  0.93488  0.99910  Biso   1.000  O
  O28      1.0000 0.24910  0.43488  0.00090  Biso   1.000  O
  O29      1.0000 0.74910  0.93488  0.50090  Biso   1.000  O
  O30      1.0000 0.75090  0.43488  0.49910  Biso   1.000  O
  O31      1.0000 0.25090  0.93488  0.50090  Biso   1.000  O
  O32      1.0000 0.24910  0.43488  0.49910  Biso   1.000  O
  O33      1.0000 0.00000  0.12930  0.00021  Biso   1.000  O
  O34      1.0000 0.00000  0.63306  0.99979  Biso   1.000  O
  O35      1.0000 0.50000  0.13306  0.00021  Biso   1.000  O
  O36      1.0000 0.50000  0.62930  0.99979  Biso   1.000  O
  O37      1.0000 0.00000  0.12930  0.49979  Biso   1.000  O
  O38      1.0000 0.00000  0.63306  0.50021  Biso   1.000  O
  O39      1.0000 0.50000  0.13306  0.49979  Biso   1.000  O
  O40      1.0000 0.50000  0.62930  0.50021  Biso   1.000  O
  O41      1.0000 0.50000  0.86694  0.00021  Biso   1.000  O
  O42      1.0000 0.50000  0.37070  0.99979  Biso   1.000  O
  O43      1.0000 0.00000  0.87070  0.00021  Biso   1.000  O
  O44      1.0000 0.00000  0.36694  0.99979  Biso   1.000  O
  O45      1.0000 0.50000  0.86694  0.49979  Biso   1.000  O
  O46      1.0000 0.50000  0.37070  0.50021  Biso   1.000  O
  O47      1.0000 0.00000  0.87070  0.49979  Biso   1.000  O
  O48      1.0000 0.00000  0.36694  0.50021  Biso   1.000  O
  O49      1.0000 0.75021  0.86694  0.75000  Biso   1.000  O
  O50      1.0000 0.74979  0.37070  0.75000  Biso   1.000  O
  O51      1.0000 0.24979  0.86694  0.75000  Biso   1.000  O
  O52      1.0000 0.25021  0.37070  0.75000  Biso   1.000  O
  O53      1.0000 0.75021  0.87070  0.25000  Biso   1.000  O
  O54      1.0000 0.74979  0.36694  0.25000  Biso   1.000  O
  O55      1.0000 0.24979  0.87070  0.25000  Biso   1.000  O
  O56      1.0000 0.25021  0.36694  0.25000  Biso   1.000  O
  O57      1.0000 0.75021  0.13306  0.75000  Biso   1.000  O
  O58      1.0000 0.74979  0.62930  0.75000  Biso   1.000  O
  O59      1.0000 0.24979  0.13306  0.75000  Biso   1.000  O
  O60      1.0000 0.25021  0.62930  0.75000  Biso   1.000  O
  O61      1.0000 0.75021  0.12930  0.25000  Biso   1.000  O
  O62      1.0000 0.74979  0.63306  0.25000  Biso   1.000  O
  O63      1.0000 0.24979  0.12930  0.25000  Biso   1.000  O
  O64      1.0000 0.25021  0.63306  0.25000  Biso   1.000  O
  O65      1.0000 0.75342  0.20187  0.00342  Biso   1.000  O
  O66      1.0000 0.74658  0.70187  0.99658  Biso   1.000  O
  O67      1.0000 0.24658  0.20187  0.00342  Biso   1.000  O
  O68      1.0000 0.25342  0.70187  0.99658  Biso   1.000  O
  O69      1.0000 0.75342  0.20187  0.49658  Biso   1.000  O
  O70      1.0000 0.74658  0.70187  0.50342  Biso   1.000  O
  O71      1.0000 0.24658  0.20187  0.49658  Biso   1.000  O
  O72      1.0000 0.25342  0.70187  0.50342  Biso   1.000  O
  O73      1.0000 0.75342  0.79813  0.00342  Biso   1.000  O
  O74      1.0000 0.74658  0.29813  0.99658  Biso   1.000  O
  O75      1.0000 0.24658  0.79813  0.00342  Biso   1.000  O
  O76      1.0000 0.25342  0.29813  0.99658  Biso   1.000  O
  O77      1.0000 0.75342  0.79813  0.49658  Biso   1.000  O
  O78      1.0000 0.74658  0.29813  0.50342  Biso   1.000  O
  O79      1.0000 0.24658  0.79813  0.49658  Biso   1.000  O
  O80      1.0000 0.25342  0.29813  0.50342  Biso   1.000  O
