data_image0
_cell_length_a       16.1647
_cell_length_b       16.1647
_cell_length_c       16.1647
_cell_angle_alpha    151.885
_cell_angle_beta     40.1819
_cell_angle_gamma    151.885

_symmetry_space_group_name_H-M    "P 1"
_symmetry_int_tables_number       1

loop_
  _symmetry_equiv_pos_as_xyz
  'x, y, z'

loop_
  _atom_site_label
  _atom_site_occupancy
  _atom_site_fract_x
  _atom_site_fract_y
  _atom_site_fract_z
  _atom_site_thermal_displace_type
  _atom_site_B_iso_or_equiv
  _atom_site_type_symbol
  K1       1.0000 0.81629  0.58400  0.23229  Biso   1.000  K
  K2       1.0000 0.35171  0.58400  0.76771  Biso   1.000  K
  K3       1.0000 0.83400  0.08400  0.75000  Biso   1.000  K
  K4       1.0000 0.33400  0.08400  0.25000  Biso   1.000  K
  Pb1      1.0000 0.65237  0.58003  0.07235  Biso   1.000  Pb
  Pb2      1.0000 0.15442  0.58003  0.57439  Biso   1.000  Pb
  Pb3      1.0000 0.65340  0.08003  0.57337  Biso   1.000  Pb
  Pb4      1.0000 0.15340  0.08003  0.07337  Biso   1.000  Pb
  Pb5      1.0000 0.50666  0.08003  0.42663  Biso   1.000  Pb
  Pb6      1.0000 0.00666  0.08003  0.92663  Biso   1.000  Pb
  Pb7      1.0000 0.50768  0.58003  0.92765  Biso   1.000  Pb
  Pb8      1.0000 0.00563  0.58003  0.42561  Biso   1.000  Pb
  Nb1      1.0000 0.32984  0.07957  0.74973  Biso   1.000  Nb
  Nb2      1.0000 0.83038  0.08064  0.25027  Biso   1.000  Nb
  Nb3      1.0000 0.32984  0.58011  0.25027  Biso   1.000  Nb
  Nb4      1.0000 0.83038  0.58011  0.74973  Biso   1.000  Nb
  Ta1      1.0000 0.47580  0.08301  0.89437  Biso   1.000  Ta
  Ta2      1.0000 0.97422  0.07985  0.39279  Biso   1.000  Ta
  Ta3      1.0000 0.47580  0.58143  0.39279  Biso   1.000  Ta
  Ta4      1.0000 0.97422  0.58143  0.89437  Biso   1.000  Ta
  Ta5      1.0000 0.18864  0.08301  0.60721  Biso   1.000  Ta
  Ta6      1.0000 0.68706  0.07985  0.10563  Biso   1.000  Ta
  Ta7      1.0000 0.18864  0.58143  0.10563  Biso   1.000  Ta
  Ta8      1.0000 0.68706  0.58143  0.60721  Biso   1.000  Ta
  O1       1.0000 0.33319  0.33319  0.00000  Biso   1.000  O
  O2       1.0000 0.83296  0.33296  0.50000  Biso   1.000  O
  O3       1.0000 0.33319  0.83319  0.50000  Biso   1.000  O
  O4       1.0000 0.83296  0.83296  0.00000  Biso   1.000  O
  O5       1.0000 0.08197  0.83209  0.75011  Biso   1.000  O
  O6       1.0000 0.58197  0.83186  0.24989  Biso   1.000  O
  O7       1.0000 0.08197  0.33186  0.24989  Biso   1.000  O
  O8       1.0000 0.58197  0.33209  0.75011  Biso   1.000  O
  O9       1.0000 0.39632  0.08030  0.81422  Biso   1.000  O
  O10      1.0000 0.89812  0.08391  0.31602  Biso   1.000  O
  O11      1.0000 0.39632  0.58210  0.31602  Biso   1.000  O
  O12      1.0000 0.89812  0.58210  0.81422  Biso   1.000  O
  O13      1.0000 0.26608  0.08030  0.68398  Biso   1.000  O
  O14      1.0000 0.76788  0.08391  0.18578  Biso   1.000  O
  O15      1.0000 0.26608  0.58210  0.18578  Biso   1.000  O
  O16      1.0000 0.76788  0.58210  0.68398  Biso   1.000  O
  O17      1.0000 0.46111  0.33180  0.12930  Biso   1.000  O
  O18      1.0000 0.96445  0.33139  0.63306  Biso   1.000  O
  O19      1.0000 0.46486  0.83180  0.63306  Biso   1.000  O
  O20      1.0000 0.96070  0.83139  0.12930  Biso   1.000  O
  O21      1.0000 0.19875  0.83180  0.36694  Biso   1.000  O
  O22      1.0000 0.70209  0.83139  0.87070  Biso   1.000  O
  O23      1.0000 0.20250  0.33180  0.87070  Biso   1.000  O
  O24      1.0000 0.69834  0.33139  0.36694  Biso   1.000  O
  O25      1.0000 0.94840  0.83167  0.61715  Biso   1.000  O
  O26      1.0000 0.45216  0.83125  0.12049  Biso   1.000  O
  O27      1.0000 0.94840  0.33125  0.11674  Biso   1.000  O
  O28      1.0000 0.45216  0.33167  0.62090  Biso   1.000  O
  O29      1.0000 0.21452  0.83167  0.88326  Biso   1.000  O
  O30      1.0000 0.71076  0.83125  0.37910  Biso   1.000  O
  O31      1.0000 0.21452  0.33125  0.38285  Biso   1.000  O
  O32      1.0000 0.71076  0.33167  0.87951  Biso   1.000  O
  O33      1.0000 0.53646  0.08801  0.95529  Biso   1.000  O
  O34      1.0000 0.02962  0.07433  0.44845  Biso   1.000  O
  O35      1.0000 0.53646  0.58117  0.44845  Biso   1.000  O
  O36      1.0000 0.02962  0.58117  0.95529  Biso   1.000  O
  O37      1.0000 0.13272  0.08801  0.55155  Biso   1.000  O
  O38      1.0000 0.62588  0.07433  0.04471  Biso   1.000  O
  O39      1.0000 0.13272  0.58117  0.04471  Biso   1.000  O
  O40      1.0000 0.62588  0.58117  0.55155  Biso   1.000  O
