data_image0
_cell_length_a       16.1647
_cell_length_b       16.1647
_cell_length_c       7.8528
_cell_angle_alpha    104.058
_cell_angle_beta     104.058
_cell_angle_gamma    28.1154

_symmetry_space_group_name_H-M    "P 1"
_symmetry_int_tables_number       1

loop_
  _symmetry_equiv_pos_as_xyz
  'x, y, z'

loop_
  _atom_site_label
  _atom_site_occupancy
  _atom_site_fract_x
  _atom_site_fract_y
  _atom_site_fract_z
  _atom_site_thermal_displace_type
  _atom_site_B_iso_or_equiv
  _atom_site_type_symbol
  K1       1.0000 0.76771  0.76771  0.27832  Biso   1.000  K
  K2       1.0000 0.23229  0.23229  0.72168  Biso   1.000  K
  K3       1.0000 0.25000  0.25000  0.23939  Biso   1.000  K
  K4       1.0000 0.75000  0.75000  0.76061  Biso   1.000  K
  Pb1      1.0000 0.92765  0.92765  0.42765  Biso   1.000  Pb
  Pb2      1.0000 0.42561  0.42561  0.92561  Biso   1.000  Pb
  Pb3      1.0000 0.42663  0.42663  0.42663  Biso   1.000  Pb
  Pb4      1.0000 0.92663  0.92663  0.92663  Biso   1.000  Pb
  Pb5      1.0000 0.57337  0.57337  0.57337  Biso   1.000  Pb
  Pb6      1.0000 0.07337  0.07337  0.07337  Biso   1.000  Pb
  Pb7      1.0000 0.07235  0.07235  0.57235  Biso   1.000  Pb
  Pb8      1.0000 0.57439  0.57439  0.07439  Biso   1.000  Pb
  Nb1      1.0000 0.74973  0.25027  0.75027  Biso   1.000  Nb
  Nb2      1.0000 0.25027  0.74973  0.24973  Biso   1.000  Nb
  Nb3      1.0000 0.25027  0.74973  0.75027  Biso   1.000  Nb
  Nb4      1.0000 0.74973  0.25027  0.24973  Biso   1.000  Nb
  Ta1      1.0000 0.60721  0.10563  0.60563  Biso   1.000  Ta
  Ta2      1.0000 0.10563  0.60721  0.10721  Biso   1.000  Ta
  Ta3      1.0000 0.10563  0.60721  0.60563  Biso   1.000  Ta
  Ta4      1.0000 0.60721  0.10563  0.10721  Biso   1.000  Ta
  Ta5      1.0000 0.89437  0.39279  0.89279  Biso   1.000  Ta
  Ta6      1.0000 0.39279  0.89437  0.39437  Biso   1.000  Ta
  Ta7      1.0000 0.39279  0.89437  0.89279  Biso   1.000  Ta
  Ta8      1.0000 0.89437  0.39279  0.39437  Biso   1.000  Ta
  O1       1.0000 0.00000  0.00000  0.74989  Biso   1.000  O
  O2       1.0000 0.50000  0.50000  0.25011  Biso   1.000  O
  O3       1.0000 0.50000  0.50000  0.74989  Biso   1.000  O
  O4       1.0000 0.00000  0.00000  0.25011  Biso   1.000  O
  O5       1.0000 0.75011  0.24989  0.00000  Biso   1.000  O
  O6       1.0000 0.24989  0.75011  0.50000  Biso   1.000  O
  O7       1.0000 0.24989  0.75011  0.00000  Biso   1.000  O
  O8       1.0000 0.75011  0.24989  0.50000  Biso   1.000  O
  O9       1.0000 0.68398  0.18578  0.68578  Biso   1.000  O
  O10      1.0000 0.18578  0.68398  0.18398  Biso   1.000  O
  O11      1.0000 0.18578  0.68398  0.68578  Biso   1.000  O
  O12      1.0000 0.68398  0.18578  0.18398  Biso   1.000  O
  O13      1.0000 0.81422  0.31602  0.81602  Biso   1.000  O
  O14      1.0000 0.31602  0.81422  0.31422  Biso   1.000  O
  O15      1.0000 0.31602  0.81422  0.81602  Biso   1.000  O
  O16      1.0000 0.81422  0.31602  0.31422  Biso   1.000  O
  O17      1.0000 0.87070  0.87070  0.62049  Biso   1.000  O
  O18      1.0000 0.36694  0.36694  0.11715  Biso   1.000  O
  O19      1.0000 0.36694  0.36694  0.61674  Biso   1.000  O
  O20      1.0000 0.87070  0.87070  0.12090  Biso   1.000  O
  O21      1.0000 0.63306  0.63306  0.88285  Biso   1.000  O
  O22      1.0000 0.12930  0.12930  0.37951  Biso   1.000  O
  O23      1.0000 0.12930  0.12930  0.87910  Biso   1.000  O
  O24      1.0000 0.63306  0.63306  0.38326  Biso   1.000  O
  O25      1.0000 0.88326  0.38285  0.13306  Biso   1.000  O
  O26      1.0000 0.37910  0.87951  0.62930  Biso   1.000  O
  O27      1.0000 0.38285  0.88326  0.13306  Biso   1.000  O
  O28      1.0000 0.87951  0.37910  0.62930  Biso   1.000  O
  O29      1.0000 0.61715  0.11674  0.86694  Biso   1.000  O
  O30      1.0000 0.12049  0.62090  0.37070  Biso   1.000  O
  O31      1.0000 0.11674  0.61715  0.86694  Biso   1.000  O
  O32      1.0000 0.62090  0.12049  0.37070  Biso   1.000  O
  O33      1.0000 0.55155  0.04471  0.54471  Biso   1.000  O
  O34      1.0000 0.04471  0.55155  0.05155  Biso   1.000  O
  O35      1.0000 0.04471  0.55155  0.54471  Biso   1.000  O
  O36      1.0000 0.55155  0.04471  0.05155  Biso   1.000  O
  O37      1.0000 0.95529  0.44845  0.94845  Biso   1.000  O
  O38      1.0000 0.44845  0.95529  0.45529  Biso   1.000  O
  O39      1.0000 0.44845  0.95529  0.94845  Biso   1.000  O
  O40      1.0000 0.95529  0.44845  0.45529  Biso   1.000  O
