data_image0
_cell_length_a       7.8528
_cell_length_b       7.8528
_cell_length_c       30.3622
_cell_angle_alpha    90
_cell_angle_beta     90
_cell_angle_gamma    90

_symmetry_space_group_name_H-M    "P 1"
_symmetry_int_tables_number       1

loop_
  _symmetry_equiv_pos_as_xyz
  'x, y, z'

loop_
  _atom_site_label
  _atom_site_occupancy
  _atom_site_fract_x
  _atom_site_fract_y
  _atom_site_fract_z
  _atom_site_thermal_displace_type
  _atom_site_B_iso_or_equiv
  _atom_site_type_symbol
  K1       1.0000 0.00253  0.99747  0.76771  Biso   1.000  K
  K2       1.0000 0.99747  0.00253  0.23229  Biso   1.000  K
  K3       1.0000 0.49747  0.00253  0.75000  Biso   1.000  K
  K4       1.0000 0.50253  0.99747  0.25000  Biso   1.000  K
  K5       1.0000 0.99747  0.50253  0.75000  Biso   1.000  K
  K6       1.0000 0.00253  0.49747  0.25000  Biso   1.000  K
  K7       1.0000 0.50253  0.49747  0.73229  Biso   1.000  K
  K8       1.0000 0.49747  0.50253  0.26771  Biso   1.000  K
  Pb1      1.0000 0.99789  0.00211  0.92765  Biso   1.000  Pb
  Pb2      1.0000 0.00211  0.99789  0.42561  Biso   1.000  Pb
  Pb3      1.0000 0.50211  0.99789  0.92663  Biso   1.000  Pb
  Pb4      1.0000 0.49789  0.00211  0.42663  Biso   1.000  Pb
  Pb5      1.0000 0.00211  0.49789  0.92663  Biso   1.000  Pb
  Pb6      1.0000 0.99789  0.50211  0.42663  Biso   1.000  Pb
  Pb7      1.0000 0.49789  0.50211  0.92561  Biso   1.000  Pb
  Pb8      1.0000 0.50211  0.49789  0.42765  Biso   1.000  Pb
  Pb9      1.0000 0.49789  0.00211  0.07337  Biso   1.000  Pb
  Pb10     1.0000 0.50211  0.99789  0.57337  Biso   1.000  Pb
  Pb11     1.0000 0.00211  0.99789  0.07235  Biso   1.000  Pb
  Pb12     1.0000 0.99789  0.00211  0.57439  Biso   1.000  Pb
  Pb13     1.0000 0.50211  0.49789  0.07439  Biso   1.000  Pb
  Pb14     1.0000 0.49789  0.50211  0.57235  Biso   1.000  Pb
  Pb15     1.0000 0.99789  0.50211  0.07337  Biso   1.000  Pb
  Pb16     1.0000 0.00211  0.49789  0.57337  Biso   1.000  Pb
  Nb1      1.0000 0.74973  0.74973  0.00000  Biso   1.000  Nb
  Nb2      1.0000 0.75027  0.75027  0.50000  Biso   1.000  Nb
  Nb3      1.0000 0.25027  0.74973  0.00000  Biso   1.000  Nb
  Nb4      1.0000 0.24973  0.75027  0.50000  Biso   1.000  Nb
  Nb5      1.0000 0.74973  0.25027  0.00000  Biso   1.000  Nb
  Nb6      1.0000 0.75027  0.24973  0.50000  Biso   1.000  Nb
  Nb7      1.0000 0.25027  0.25027  0.00000  Biso   1.000  Nb
  Nb8      1.0000 0.24973  0.24973  0.50000  Biso   1.000  Nb
  Ta1      1.0000 0.75127  0.75030  0.85642  Biso   1.000  Ta
  Ta2      1.0000 0.74873  0.74970  0.35642  Biso   1.000  Ta
  Ta3      1.0000 0.24873  0.75127  0.85642  Biso   1.000  Ta
  Ta4      1.0000 0.25127  0.74873  0.35642  Biso   1.000  Ta
  Ta5      1.0000 0.75030  0.24970  0.85642  Biso   1.000  Ta
  Ta6      1.0000 0.74970  0.25030  0.35642  Biso   1.000  Ta
  Ta7      1.0000 0.24970  0.24873  0.85642  Biso   1.000  Ta
  Ta8      1.0000 0.25030  0.25127  0.35642  Biso   1.000  Ta
  Ta9      1.0000 0.75030  0.75127  0.14358  Biso   1.000  Ta
  Ta10     1.0000 0.74970  0.74873  0.64358  Biso   1.000  Ta
  Ta11     1.0000 0.24970  0.75030  0.14358  Biso   1.000  Ta
  Ta12     1.0000 0.25030  0.74970  0.64358  Biso   1.000  Ta
  Ta13     1.0000 0.75127  0.24873  0.14358  Biso   1.000  Ta
  Ta14     1.0000 0.74873  0.25127  0.64358  Biso   1.000  Ta
  Ta15     1.0000 0.24873  0.24970  0.14358  Biso   1.000  Ta
  Ta16     1.0000 0.25127  0.25030  0.64358  Biso   1.000  Ta
  O1       1.0000 1.00000  0.75011  0.99692  Biso   1.000  O
  O2       1.0000 0.00000  0.74989  0.50308  Biso   1.000  O
  O3       1.0000 0.50000  0.75011  0.00308  Biso   1.000  O
  O4       1.0000 0.50000  0.74989  0.49692  Biso   1.000  O
  O5       1.0000 0.00000  0.24989  0.00308  Biso   1.000  O
  O6       1.0000 0.00000  0.25011  0.49692  Biso   1.000  O
  O7       1.0000 0.50000  0.24989  0.99692  Biso   1.000  O
  O8       1.0000 0.50000  0.25011  0.50308  Biso   1.000  O
  O9       1.0000 0.75011  0.50000  0.99692  Biso   1.000  O
  O10      1.0000 0.74989  0.50000  0.50308  Biso   1.000  O
  O11      1.0000 0.24989  0.50000  0.00308  Biso   1.000  O
  O12      1.0000 0.25011  0.50000  0.49692  Biso   1.000  O
  O13      1.0000 0.75011  1.00000  0.00308  Biso   1.000  O
  O14      1.0000 0.74989  1.00000  0.49692  Biso   1.000  O
  O15      1.0000 0.24989  0.00000  0.99692  Biso   1.000  O
  O16      1.0000 0.25011  0.00000  0.50308  Biso   1.000  O
  O17      1.0000 0.74616  0.75204  0.93488  Biso   1.000  O
  O18      1.0000 0.75384  0.74796  0.43488  Biso   1.000  O
  O19      1.0000 0.25384  0.74616  0.93488  Biso   1.000  O
  O20      1.0000 0.24616  0.75384  0.43488  Biso   1.000  O
  O21      1.0000 0.75204  0.24796  0.93488  Biso   1.000  O
  O22      1.0000 0.74796  0.25204  0.43488  Biso   1.000  O
  O23      1.0000 0.24796  0.25384  0.93488  Biso   1.000  O
  O24      1.0000 0.25204  0.24616  0.43488  Biso   1.000  O
  O25      1.0000 0.75204  0.74616  0.06512  Biso   1.000  O
  O26      1.0000 0.74796  0.75384  0.56512  Biso   1.000  O
  O27      1.0000 0.24796  0.75204  0.06512  Biso   1.000  O
  O28      1.0000 0.25204  0.74796  0.56512  Biso   1.000  O
  O29      1.0000 0.74616  0.25384  0.06512  Biso   1.000  O
  O30      1.0000 0.75384  0.24616  0.56512  Biso   1.000  O
  O31      1.0000 0.25384  0.24796  0.06512  Biso   1.000  O
  O32      1.0000 0.24616  0.25204  0.56512  Biso   1.000  O
  O33      1.0000 1.00000  0.75021  0.87249  Biso   1.000  O
  O34      1.0000 1.00000  0.74979  0.36515  Biso   1.000  O
  O35      1.0000 0.50000  0.75021  0.86515  Biso   1.000  O
  O36      1.0000 0.50000  0.74979  0.37249  Biso   1.000  O
  O37      1.0000 1.00000  0.24979  0.86891  Biso   1.000  O
  O38      1.0000 1.00000  0.25021  0.36873  Biso   1.000  O
  O39      1.0000 0.50000  0.24979  0.86873  Biso   1.000  O
  O40      1.0000 0.50000  0.25021  0.36891  Biso   1.000  O
  O41      1.0000 0.50000  0.75021  0.13127  Biso   1.000  O
  O42      1.0000 0.50000  0.74979  0.63109  Biso   1.000  O
  O43      1.0000 0.00000  0.75021  0.13109  Biso   1.000  O
  O44      1.0000 0.00000  0.74979  0.63127  Biso   1.000  O
  O45      1.0000 0.50000  0.24979  0.13485  Biso   1.000  O
  O46      1.0000 0.50000  0.25021  0.62751  Biso   1.000  O
  O47      1.0000 0.00000  0.24979  0.12751  Biso   1.000  O
  O48      1.0000 0.00000  0.25021  0.63485  Biso   1.000  O
  O49      1.0000 0.75021  0.50000  0.13485  Biso   1.000  O
  O50      1.0000 0.74979  0.50000  0.62751  Biso   1.000  O
  O51      1.0000 0.24979  0.50000  0.13127  Biso   1.000  O
  O52      1.0000 0.25021  0.50000  0.63109  Biso   1.000  O
  O53      1.0000 0.75021  0.00000  0.12751  Biso   1.000  O
  O54      1.0000 0.74979  1.00000  0.63485  Biso   1.000  O
  O55      1.0000 0.24979  1.00000  0.13109  Biso   1.000  O
  O56      1.0000 0.25021  1.00000  0.63127  Biso   1.000  O
  O57      1.0000 0.75021  0.50000  0.86873  Biso   1.000  O
  O58      1.0000 0.74979  0.50000  0.36891  Biso   1.000  O
  O59      1.0000 0.24979  0.50000  0.86515  Biso   1.000  O
  O60      1.0000 0.25021  0.50000  0.37249  Biso   1.000  O
  O61      1.0000 0.75021  0.00000  0.86891  Biso   1.000  O
  O62      1.0000 0.74979  0.00000  0.36873  Biso   1.000  O
  O63      1.0000 0.24979  0.00000  0.87249  Biso   1.000  O
  O64      1.0000 0.25021  0.00000  0.36515  Biso   1.000  O
  O65      1.0000 0.75534  0.75150  0.79813  Biso   1.000  O
  O66      1.0000 0.74466  0.74850  0.29813  Biso   1.000  O
  O67      1.0000 0.24466  0.75534  0.79813  Biso   1.000  O
  O68      1.0000 0.25534  0.74466  0.29813  Biso   1.000  O
  O69      1.0000 0.75150  0.24850  0.79813  Biso   1.000  O
  O70      1.0000 0.74850  0.25150  0.29813  Biso   1.000  O
  O71      1.0000 0.24850  0.24466  0.79813  Biso   1.000  O
  O72      1.0000 0.25150  0.25534  0.29813  Biso   1.000  O
  O73      1.0000 0.75150  0.75534  0.20187  Biso   1.000  O
  O74      1.0000 0.74850  0.74466  0.70187  Biso   1.000  O
  O75      1.0000 0.24850  0.75150  0.20187  Biso   1.000  O
  O76      1.0000 0.25150  0.74850  0.70187  Biso   1.000  O
  O77      1.0000 0.75534  0.24466  0.20187  Biso   1.000  O
  O78      1.0000 0.74466  0.25534  0.70187  Biso   1.000  O
  O79      1.0000 0.24466  0.24850  0.20187  Biso   1.000  O
  O80      1.0000 0.25534  0.25150  0.70187  Biso   1.000  O
