data_image0
_cell_length_a       16.1647
_cell_length_b       16.1647
_cell_length_c       16.1647
_cell_angle_alpha    151.885
_cell_angle_beta     40.1819
_cell_angle_gamma    151.885

_symmetry_space_group_name_H-M    "P 1"
_symmetry_int_tables_number       1

loop_
  _symmetry_equiv_pos_as_xyz
  'x, y, z'

loop_
  _atom_site_label
  _atom_site_occupancy
  _atom_site_fract_x
  _atom_site_fract_y
  _atom_site_fract_z
  _atom_site_thermal_displace_type
  _atom_site_B_iso_or_equiv
  _atom_site_type_symbol
  K1       1.0000 0.24114  0.98939  0.23054  Biso   1.000  K
  K2       1.0000 0.75886  0.01061  0.76946  Biso   1.000  K
  K3       1.0000 0.25886  0.48939  0.74825  Biso   1.000  K
  K4       1.0000 0.74114  0.51061  0.25175  Biso   1.000  K
  Pb1      1.0000 0.07286  0.00000  0.07286  Biso   1.000  Pb
  Pb2      1.0000 0.57388  1.00000  0.57388  Biso   1.000  Pb
  Pb3      1.0000 0.07388  0.50000  0.57388  Biso   1.000  Pb
  Pb4      1.0000 0.57286  0.50000  0.07286  Biso   1.000  Pb
  Pb5      1.0000 0.92612  0.50000  0.42612  Biso   1.000  Pb
  Pb6      1.0000 0.42714  0.50000  0.92714  Biso   1.000  Pb
  Pb7      1.0000 0.92714  0.00000  0.92714  Biso   1.000  Pb
  Pb8      1.0000 0.42612  1.00000  0.42612  Biso   1.000  Pb
  Nb1      1.0000 0.75000  0.49973  0.74973  Biso   1.000  Nb
  Nb2      1.0000 0.25000  0.50027  0.25027  Biso   1.000  Nb
  Nb3      1.0000 0.75000  0.00027  0.25027  Biso   1.000  Nb
  Nb4      1.0000 0.25000  0.99973  0.74973  Biso   1.000  Nb
  Ta1      1.0000 0.89358  0.50079  0.89437  Biso   1.000  Ta
  Ta2      1.0000 0.39358  0.49921  0.39279  Biso   1.000  Ta
  Ta3      1.0000 0.89358  0.99921  0.39279  Biso   1.000  Ta
  Ta4      1.0000 0.39358  0.00079  0.89437  Biso   1.000  Ta
  Ta5      1.0000 0.60642  0.50079  0.60721  Biso   1.000  Ta
  Ta6      1.0000 0.10642  0.49921  0.10563  Biso   1.000  Ta
  Ta7      1.0000 0.60642  0.99921  0.10563  Biso   1.000  Ta
  Ta8      1.0000 0.10642  0.00079  0.60721  Biso   1.000  Ta
  O1       1.0000 0.75000  0.75000  0.00000  Biso   1.000  O
  O2       1.0000 0.25000  0.75000  0.50000  Biso   1.000  O
  O3       1.0000 0.75000  0.25000  0.50000  Biso   1.000  O
  O4       1.0000 0.25000  0.25000  0.00000  Biso   1.000  O
  O5       1.0000 0.50000  0.25011  0.75011  Biso   1.000  O
  O6       1.0000 0.00000  0.24989  0.24989  Biso   1.000  O
  O7       1.0000 0.50000  0.74989  0.24989  Biso   1.000  O
  O8       1.0000 0.00000  0.75011  0.75011  Biso   1.000  O
  O9       1.0000 0.81512  0.49910  0.81422  Biso   1.000  O
  O10      1.0000 0.31512  0.50090  0.31602  Biso   1.000  O
  O11      1.0000 0.81512  0.00090  0.31602  Biso   1.000  O
  O12      1.0000 0.31512  0.99910  0.81422  Biso   1.000  O
  O13      1.0000 0.68488  0.49910  0.68398  Biso   1.000  O
  O14      1.0000 0.18488  0.50090  0.18578  Biso   1.000  O
  O15      1.0000 0.68488  0.00090  0.18578  Biso   1.000  O
  O16      1.0000 0.18488  0.99910  0.68398  Biso   1.000  O
  O17      1.0000 0.87930  0.75000  0.12930  Biso   1.000  O
  O18      1.0000 0.38306  0.75000  0.63306  Biso   1.000  O
  O19      1.0000 0.88306  0.25000  0.63306  Biso   1.000  O
  O20      1.0000 0.37930  0.25000  0.12930  Biso   1.000  O
  O21      1.0000 0.61694  0.25000  0.36694  Biso   1.000  O
  O22      1.0000 0.12070  0.25000  0.87070  Biso   1.000  O
  O23      1.0000 0.62070  0.75000  0.87070  Biso   1.000  O
  O24      1.0000 0.11694  0.75000  0.36694  Biso   1.000  O
  O25      1.0000 0.36882  0.25021  0.61903  Biso   1.000  O
  O26      1.0000 0.86882  0.24979  0.11861  Biso   1.000  O
  O27      1.0000 0.36882  0.74979  0.11861  Biso   1.000  O
  O28      1.0000 0.86882  0.75021  0.61903  Biso   1.000  O
  O29      1.0000 0.63118  0.25021  0.88139  Biso   1.000  O
  O30      1.0000 0.13118  0.24979  0.38097  Biso   1.000  O
  O31      1.0000 0.63118  0.74979  0.38097  Biso   1.000  O
  O32      1.0000 0.13118  0.75021  0.88139  Biso   1.000  O
  O33      1.0000 0.95187  0.50342  0.95529  Biso   1.000  O
  O34      1.0000 0.45187  0.49658  0.44845  Biso   1.000  O
  O35      1.0000 0.95187  0.99658  0.44845  Biso   1.000  O
  O36      1.0000 0.45187  0.00342  0.95529  Biso   1.000  O
  O37      1.0000 0.54813  0.50342  0.55155  Biso   1.000  O
  O38      1.0000 0.04813  0.49658  0.04471  Biso   1.000  O
  O39      1.0000 0.54813  0.99658  0.04471  Biso   1.000  O
  O40      1.0000 0.04813  0.00342  0.55155  Biso   1.000  O
