data_image0
_cell_length_a       7.8528
_cell_length_b       30.3622
_cell_length_c       7.8528
_cell_angle_alpha    90
_cell_angle_beta     90
_cell_angle_gamma    90

_symmetry_space_group_name_H-M    "P 1"
_symmetry_int_tables_number       1

loop_
  _symmetry_equiv_pos_as_xyz
  'x, y, z'

loop_
  _atom_site_label
  _atom_site_occupancy
  _atom_site_fract_x
  _atom_site_fract_y
  _atom_site_fract_z
  _atom_site_thermal_displace_type
  _atom_site_B_iso_or_equiv
  _atom_site_type_symbol
  K1       1.0000 0.25000  0.98229  0.25000  Biso   1.000  K
  K2       1.0000 0.25000  0.51771  0.25000  Biso   1.000  K
  K3       1.0000 0.75000  0.00000  0.25000  Biso   1.000  K
  K4       1.0000 0.75000  0.50000  0.25000  Biso   1.000  K
  K5       1.0000 0.25000  1.00000  0.75000  Biso   1.000  K
  K6       1.0000 0.25000  0.50000  0.75000  Biso   1.000  K
  K7       1.0000 0.75000  0.01771  0.75000  Biso   1.000  K
  K8       1.0000 0.75000  0.48229  0.75000  Biso   1.000  K
  Pb1      1.0000 0.25125  0.82235  0.24786  Biso   1.000  Pb
  Pb2      1.0000 0.24875  0.32439  0.25214  Biso   1.000  Pb
  Pb3      1.0000 0.75125  0.82337  0.24786  Biso   1.000  Pb
  Pb4      1.0000 0.74875  0.32337  0.25214  Biso   1.000  Pb
  Pb5      1.0000 0.25125  0.82337  0.74786  Biso   1.000  Pb
  Pb6      1.0000 0.24875  0.32337  0.75214  Biso   1.000  Pb
  Pb7      1.0000 0.75125  0.82439  0.74786  Biso   1.000  Pb
  Pb8      1.0000 0.74875  0.32235  0.75214  Biso   1.000  Pb
  Pb9      1.0000 0.75125  0.67663  0.24786  Biso   1.000  Pb
  Pb10     1.0000 0.74875  0.17663  0.25214  Biso   1.000  Pb
  Pb11     1.0000 0.25125  0.67765  0.24786  Biso   1.000  Pb
  Pb12     1.0000 0.24875  0.17561  0.25214  Biso   1.000  Pb
  Pb13     1.0000 0.75125  0.67561  0.74786  Biso   1.000  Pb
  Pb14     1.0000 0.74875  0.17765  0.75214  Biso   1.000  Pb
  Pb15     1.0000 0.25125  0.67663  0.74786  Biso   1.000  Pb
  Pb16     1.0000 0.24875  0.17663  0.75214  Biso   1.000  Pb
  Nb1      1.0000 0.00075  0.75000  0.99916  Biso   1.000  Nb
  Nb2      1.0000 0.99925  0.25000  0.00084  Biso   1.000  Nb
  Nb3      1.0000 0.50129  0.75000  0.99916  Biso   1.000  Nb
  Nb4      1.0000 0.49871  0.25000  0.00084  Biso   1.000  Nb
  Nb5      1.0000 0.00075  0.75000  0.49970  Biso   1.000  Nb
  Nb6      1.0000 0.99925  0.25000  0.50030  Biso   1.000  Nb
  Nb7      1.0000 0.50129  0.75000  0.49970  Biso   1.000  Nb
  Nb8      1.0000 0.49871  0.25000  0.50030  Biso   1.000  Nb
  Ta1      1.0000 0.00117  0.89358  0.99461  Biso   1.000  Ta
  Ta2      1.0000 0.99883  0.39358  0.00539  Biso   1.000  Ta
  Ta3      1.0000 0.49959  0.89358  0.99461  Biso   1.000  Ta
  Ta4      1.0000 0.50041  0.39358  0.00539  Biso   1.000  Ta
  Ta5      1.0000 0.00117  0.89358  0.49303  Biso   1.000  Ta
  Ta6      1.0000 0.99883  0.39358  0.50697  Biso   1.000  Ta
  Ta7      1.0000 0.49959  0.89358  0.49303  Biso   1.000  Ta
  Ta8      1.0000 0.50041  0.39358  0.50697  Biso   1.000  Ta
  Ta9      1.0000 0.00117  0.60642  0.99461  Biso   1.000  Ta
  Ta10     1.0000 0.99883  0.10642  0.00539  Biso   1.000  Ta
  Ta11     1.0000 0.49959  0.60642  0.99461  Biso   1.000  Ta
  Ta12     1.0000 0.50041  0.10642  0.00539  Biso   1.000  Ta
  Ta13     1.0000 0.00117  0.60642  0.49303  Biso   1.000  Ta
  Ta14     1.0000 0.99883  0.10642  0.50697  Biso   1.000  Ta
  Ta15     1.0000 0.49959  0.60642  0.49303  Biso   1.000  Ta
  Ta16     1.0000 0.50041  0.10642  0.50697  Biso   1.000  Ta
  O1       1.0000 0.24970  0.75000  0.99346  Biso   1.000  O
  O2       1.0000 0.25030  0.25000  0.00654  Biso   1.000  O
  O3       1.0000 0.74970  0.75000  0.99346  Biso   1.000  O
  O4       1.0000 0.75030  0.25000  0.00654  Biso   1.000  O
  O5       1.0000 0.24970  0.75000  0.49323  Biso   1.000  O
  O6       1.0000 0.25030  0.25000  0.50677  Biso   1.000  O
  O7       1.0000 0.74970  0.75000  0.49323  Biso   1.000  O
  O8       1.0000 0.75030  0.25000  0.50677  Biso   1.000  O
  O9       1.0000 0.99916  0.75000  0.74630  Biso   1.000  O
  O10      1.0000 0.00084  0.25000  0.75370  Biso   1.000  O
  O11      1.0000 0.49894  0.75000  0.74630  Biso   1.000  O
  O12      1.0000 0.50106  0.25000  0.75370  Biso   1.000  O
  O13      1.0000 0.99916  0.75000  0.24630  Biso   1.000  O
  O14      1.0000 0.00084  0.25000  0.25370  Biso   1.000  O
  O15      1.0000 0.49894  0.75000  0.24630  Biso   1.000  O
  O16      1.0000 0.50106  0.25000  0.25370  Biso   1.000  O
  O17      1.0000 0.99871  0.81512  0.99484  Biso   1.000  O
  O18      1.0000 0.00129  0.31512  0.00516  Biso   1.000  O
  O19      1.0000 0.50051  0.81512  0.99484  Biso   1.000  O
  O20      1.0000 0.49949  0.31512  0.00516  Biso   1.000  O
  O21      1.0000 0.99871  0.81512  0.49665  Biso   1.000  O
  O22      1.0000 0.00129  0.31512  0.50335  Biso   1.000  O
  O23      1.0000 0.50051  0.81512  0.49665  Biso   1.000  O
  O24      1.0000 0.49949  0.31512  0.50335  Biso   1.000  O
  O25      1.0000 0.99871  0.68488  0.99484  Biso   1.000  O
  O26      1.0000 0.00129  0.18488  0.00516  Biso   1.000  O
  O27      1.0000 0.50051  0.68488  0.99484  Biso   1.000  O
  O28      1.0000 0.49949  0.18488  0.00516  Biso   1.000  O
  O29      1.0000 0.99871  0.68488  0.49665  Biso   1.000  O
  O30      1.0000 0.00129  0.18488  0.50335  Biso   1.000  O
  O31      1.0000 0.50051  0.68488  0.49665  Biso   1.000  O
  O32      1.0000 0.49949  0.18488  0.50335  Biso   1.000  O
  O33      1.0000 0.25000  0.87930  0.99747  Biso   1.000  O
  O34      1.0000 0.25000  0.38306  0.00253  Biso   1.000  O
  O35      1.0000 0.75000  0.88306  0.99747  Biso   1.000  O
  O36      1.0000 0.75000  0.37930  0.00253  Biso   1.000  O
  O37      1.0000 0.25000  0.87930  0.49705  Biso   1.000  O
  O38      1.0000 0.25000  0.38306  0.50295  Biso   1.000  O
  O39      1.0000 0.75000  0.88306  0.49705  Biso   1.000  O
  O40      1.0000 0.75000  0.37930  0.50295  Biso   1.000  O
  O41      1.0000 0.75000  0.61694  0.99747  Biso   1.000  O
  O42      1.0000 0.75000  0.12070  0.00253  Biso   1.000  O
  O43      1.0000 0.25000  0.62070  0.99747  Biso   1.000  O
  O44      1.0000 0.25000  0.11694  0.00253  Biso   1.000  O
  O45      1.0000 0.75000  0.61694  0.49705  Biso   1.000  O
  O46      1.0000 0.75000  0.12070  0.50295  Biso   1.000  O
  O47      1.0000 0.25000  0.62070  0.49705  Biso   1.000  O
  O48      1.0000 0.25000  0.11694  0.50295  Biso   1.000  O
  O49      1.0000 0.00012  0.61694  0.74760  Biso   1.000  O
  O50      1.0000 0.99988  0.12070  0.75240  Biso   1.000  O
  O51      1.0000 0.49971  0.61694  0.74760  Biso   1.000  O
  O52      1.0000 0.50029  0.12070  0.75240  Biso   1.000  O
  O53      1.0000 0.00012  0.62070  0.24760  Biso   1.000  O
  O54      1.0000 0.99988  0.11694  0.25240  Biso   1.000  O
  O55      1.0000 0.49971  0.62070  0.24760  Biso   1.000  O
  O56      1.0000 0.50029  0.11694  0.25240  Biso   1.000  O
  O57      1.0000 0.00012  0.88306  0.74760  Biso   1.000  O
  O58      1.0000 0.99988  0.37930  0.75240  Biso   1.000  O
  O59      1.0000 0.49971  0.88306  0.74760  Biso   1.000  O
  O60      1.0000 0.50029  0.37930  0.75240  Biso   1.000  O
  O61      1.0000 0.00012  0.87930  0.24760  Biso   1.000  O
  O62      1.0000 0.99988  0.38306  0.25240  Biso   1.000  O
  O63      1.0000 0.49971  0.87930  0.24760  Biso   1.000  O
  O64      1.0000 0.50029  0.38306  0.25240  Biso   1.000  O
  O65      1.0000 0.00353  0.95187  0.00091  Biso   1.000  O
  O66      1.0000 0.99647  0.45187  0.99909  Biso   1.000  O
  O67      1.0000 0.49669  0.95187  0.00091  Biso   1.000  O
  O68      1.0000 0.50331  0.45187  0.99909  Biso   1.000  O
  O69      1.0000 0.00353  0.95187  0.49407  Biso   1.000  O
  O70      1.0000 0.99647  0.45187  0.50593  Biso   1.000  O
  O71      1.0000 0.49669  0.95187  0.49407  Biso   1.000  O
  O72      1.0000 0.50331  0.45187  0.50593  Biso   1.000  O
  O73      1.0000 0.00353  0.54813  0.00091  Biso   1.000  O
  O74      1.0000 0.99647  0.04813  0.99909  Biso   1.000  O
  O75      1.0000 0.49669  0.54813  0.00091  Biso   1.000  O
  O76      1.0000 0.50331  0.04813  0.99909  Biso   1.000  O
  O77      1.0000 0.00353  0.54813  0.49407  Biso   1.000  O
  O78      1.0000 0.99647  0.04813  0.50593  Biso   1.000  O
  O79      1.0000 0.49669  0.54813  0.49407  Biso   1.000  O
  O80      1.0000 0.50331  0.04813  0.50593  Biso   1.000  O
