data_image0
_cell_length_a       7.8528
_cell_length_b       30.3622
_cell_length_c       7.8528
_cell_angle_alpha    90
_cell_angle_beta     90
_cell_angle_gamma    90

_symmetry_space_group_name_H-M    "P 1"
_symmetry_int_tables_number       1

loop_
  _symmetry_equiv_pos_as_xyz
  'x, y, z'

loop_
  _atom_site_label
  _atom_site_occupancy
  _atom_site_fract_x
  _atom_site_fract_y
  _atom_site_fract_z
  _atom_site_thermal_displace_type
  _atom_site_B_iso_or_equiv
  _atom_site_type_symbol
  K1       1.0000 0.98516  0.23229  0.00000  Biso   1.000  K
  K2       1.0000 0.01484  0.76771  0.00000  Biso   1.000  K
  K3       1.0000 0.48516  0.25000  0.00000  Biso   1.000  K
  K4       1.0000 0.51484  0.75000  0.00000  Biso   1.000  K
  K5       1.0000 0.98516  0.25000  0.50000  Biso   1.000  K
  K6       1.0000 0.01484  0.75000  0.50000  Biso   1.000  K
  K7       1.0000 0.48516  0.26771  0.50000  Biso   1.000  K
  K8       1.0000 0.51484  0.73229  0.50000  Biso   1.000  K
  Pb1      1.0000 0.00028  0.07235  0.00000  Biso   1.000  Pb
  Pb2      1.0000 0.99972  0.57439  0.00000  Biso   1.000  Pb
  Pb3      1.0000 0.50028  0.07337  0.00000  Biso   1.000  Pb
  Pb4      1.0000 0.49972  0.57337  0.00000  Biso   1.000  Pb
  Pb5      1.0000 0.00028  0.07337  0.50000  Biso   1.000  Pb
  Pb6      1.0000 0.99972  0.57337  0.50000  Biso   1.000  Pb
  Pb7      1.0000 0.50028  0.07439  0.50000  Biso   1.000  Pb
  Pb8      1.0000 0.49972  0.57235  0.50000  Biso   1.000  Pb
  Pb9      1.0000 0.49972  0.92663  0.00000  Biso   1.000  Pb
  Pb10     1.0000 0.50028  0.42663  0.00000  Biso   1.000  Pb
  Pb11     1.0000 0.99972  0.92765  0.00000  Biso   1.000  Pb
  Pb12     1.0000 0.00028  0.42561  0.00000  Biso   1.000  Pb
  Pb13     1.0000 0.49972  0.92561  0.50000  Biso   1.000  Pb
  Pb14     1.0000 0.50028  0.42765  0.50000  Biso   1.000  Pb
  Pb15     1.0000 0.99972  0.92663  0.50000  Biso   1.000  Pb
  Pb16     1.0000 0.00028  0.42663  0.50000  Biso   1.000  Pb
  Nb1      1.0000 0.74973  0.00000  0.74973  Biso   1.000  Nb
  Nb2      1.0000 0.75027  0.50000  0.75027  Biso   1.000  Nb
  Nb3      1.0000 0.25027  0.00000  0.74973  Biso   1.000  Nb
  Nb4      1.0000 0.24973  0.50000  0.75027  Biso   1.000  Nb
  Nb5      1.0000 0.74973  0.00000  0.25027  Biso   1.000  Nb
  Nb6      1.0000 0.75027  0.50000  0.24973  Biso   1.000  Nb
  Nb7      1.0000 0.25027  0.00000  0.25027  Biso   1.000  Nb
  Nb8      1.0000 0.24973  0.50000  0.24973  Biso   1.000  Nb
  Ta1      1.0000 0.75162  0.14358  0.75079  Biso   1.000  Ta
  Ta2      1.0000 0.74838  0.64358  0.74921  Biso   1.000  Ta
  Ta3      1.0000 0.25004  0.14358  0.75079  Biso   1.000  Ta
  Ta4      1.0000 0.24996  0.64358  0.74921  Biso   1.000  Ta
  Ta5      1.0000 0.75162  0.14358  0.24921  Biso   1.000  Ta
  Ta6      1.0000 0.74838  0.64358  0.25079  Biso   1.000  Ta
  Ta7      1.0000 0.25004  0.14358  0.24921  Biso   1.000  Ta
  Ta8      1.0000 0.24996  0.64358  0.25079  Biso   1.000  Ta
  Ta9      1.0000 0.74996  0.85642  0.75079  Biso   1.000  Ta
  Ta10     1.0000 0.75004  0.35642  0.74921  Biso   1.000  Ta
  Ta11     1.0000 0.24838  0.85642  0.75079  Biso   1.000  Ta
  Ta12     1.0000 0.25162  0.35642  0.74921  Biso   1.000  Ta
  Ta13     1.0000 0.74996  0.85642  0.24921  Biso   1.000  Ta
  Ta14     1.0000 0.75004  0.35642  0.25079  Biso   1.000  Ta
  Ta15     1.0000 0.24838  0.85642  0.24921  Biso   1.000  Ta
  Ta16     1.0000 0.25162  0.35642  0.25079  Biso   1.000  Ta
  O1       1.0000 0.00000  0.00000  0.75011  Biso   1.000  O
  O2       1.0000 0.00000  0.50000  0.74989  Biso   1.000  O
  O3       1.0000 0.50000  0.00000  0.75011  Biso   1.000  O
  O4       1.0000 0.50000  0.50000  0.74989  Biso   1.000  O
  O5       1.0000 0.00000  0.00000  0.24989  Biso   1.000  O
  O6       1.0000 0.00000  0.50000  0.25011  Biso   1.000  O
  O7       1.0000 0.50000  0.00000  0.24989  Biso   1.000  O
  O8       1.0000 0.50000  0.50000  0.25011  Biso   1.000  O
  O9       1.0000 0.75011  0.00000  0.50000  Biso   1.000  O
  O10      1.0000 0.74989  0.50000  0.50000  Biso   1.000  O
  O11      1.0000 0.24989  0.00000  0.50000  Biso   1.000  O
  O12      1.0000 0.25011  0.50000  0.50000  Biso   1.000  O
  O13      1.0000 0.75011  0.00000  0.00000  Biso   1.000  O
  O14      1.0000 0.74989  0.50000  0.00000  Biso   1.000  O
  O15      1.0000 0.24989  0.00000  0.00000  Biso   1.000  O
  O16      1.0000 0.25011  0.50000  0.00000  Biso   1.000  O
  O17      1.0000 0.74929  0.06512  0.74910  Biso   1.000  O
  O18      1.0000 0.75071  0.56512  0.75090  Biso   1.000  O
  O19      1.0000 0.25109  0.06512  0.74910  Biso   1.000  O
  O20      1.0000 0.24891  0.56512  0.75090  Biso   1.000  O
  O21      1.0000 0.74929  0.06512  0.25090  Biso   1.000  O
  O22      1.0000 0.75071  0.56512  0.24910  Biso   1.000  O
  O23      1.0000 0.25109  0.06512  0.25090  Biso   1.000  O
  O24      1.0000 0.24891  0.56512  0.24910  Biso   1.000  O
  O25      1.0000 0.74891  0.93488  0.74910  Biso   1.000  O
  O26      1.0000 0.75109  0.43488  0.75090  Biso   1.000  O
  O27      1.0000 0.25071  0.93488  0.74910  Biso   1.000  O
  O28      1.0000 0.24929  0.43488  0.75090  Biso   1.000  O
  O29      1.0000 0.74891  0.93488  0.25090  Biso   1.000  O
  O30      1.0000 0.75109  0.43488  0.24910  Biso   1.000  O
  O31      1.0000 0.25071  0.93488  0.25090  Biso   1.000  O
  O32      1.0000 0.24929  0.43488  0.24910  Biso   1.000  O
  O33      1.0000 0.00029  0.12930  0.75021  Biso   1.000  O
  O34      1.0000 0.99971  0.63306  0.74979  Biso   1.000  O
  O35      1.0000 0.50029  0.13306  0.75021  Biso   1.000  O
  O36      1.0000 0.49971  0.62930  0.74979  Biso   1.000  O
  O37      1.0000 0.00029  0.12930  0.24979  Biso   1.000  O
  O38      1.0000 0.99971  0.63306  0.25021  Biso   1.000  O
  O39      1.0000 0.50029  0.13306  0.24979  Biso   1.000  O
  O40      1.0000 0.49971  0.62930  0.25021  Biso   1.000  O
  O41      1.0000 0.49971  0.86694  0.75021  Biso   1.000  O
  O42      1.0000 0.50029  0.37070  0.74979  Biso   1.000  O
  O43      1.0000 0.99971  0.87070  0.75021  Biso   1.000  O
  O44      1.0000 0.00029  0.36694  0.74979  Biso   1.000  O
  O45      1.0000 0.49971  0.86694  0.24979  Biso   1.000  O
  O46      1.0000 0.50029  0.37070  0.25021  Biso   1.000  O
  O47      1.0000 0.99971  0.87070  0.24979  Biso   1.000  O
  O48      1.0000 0.00029  0.36694  0.25021  Biso   1.000  O
  O49      1.0000 0.74991  0.86694  0.50000  Biso   1.000  O
  O50      1.0000 0.75009  0.37070  0.50000  Biso   1.000  O
  O51      1.0000 0.24950  0.86694  0.50000  Biso   1.000  O
  O52      1.0000 0.25050  0.37070  0.50000  Biso   1.000  O
  O53      1.0000 0.74991  0.87070  0.00000  Biso   1.000  O
  O54      1.0000 0.75009  0.36694  0.00000  Biso   1.000  O
  O55      1.0000 0.24950  0.87070  0.00000  Biso   1.000  O
  O56      1.0000 0.25050  0.36694  0.00000  Biso   1.000  O
  O57      1.0000 0.75050  0.13306  0.50000  Biso   1.000  O
  O58      1.0000 0.74950  0.62930  0.50000  Biso   1.000  O
  O59      1.0000 0.25009  0.13306  0.50000  Biso   1.000  O
  O60      1.0000 0.24991  0.62930  0.50000  Biso   1.000  O
  O61      1.0000 0.75050  0.12930  0.00000  Biso   1.000  O
  O62      1.0000 0.74950  0.63306  0.00000  Biso   1.000  O
  O63      1.0000 0.25009  0.12930  0.00000  Biso   1.000  O
  O64      1.0000 0.24991  0.63306  0.00000  Biso   1.000  O
  O65      1.0000 0.75462  0.20187  0.75342  Biso   1.000  O
  O66      1.0000 0.74538  0.70187  0.74658  Biso   1.000  O
  O67      1.0000 0.24778  0.20187  0.75342  Biso   1.000  O
  O68      1.0000 0.25222  0.70187  0.74658  Biso   1.000  O
  O69      1.0000 0.75462  0.20187  0.24658  Biso   1.000  O
  O70      1.0000 0.74538  0.70187  0.25342  Biso   1.000  O
  O71      1.0000 0.24778  0.20187  0.24658  Biso   1.000  O
  O72      1.0000 0.25222  0.70187  0.25342  Biso   1.000  O
  O73      1.0000 0.75222  0.79813  0.75342  Biso   1.000  O
  O74      1.0000 0.74778  0.29813  0.74658  Biso   1.000  O
  O75      1.0000 0.24538  0.79813  0.75342  Biso   1.000  O
  O76      1.0000 0.25462  0.29813  0.74658  Biso   1.000  O
  O77      1.0000 0.75222  0.79813  0.24658  Biso   1.000  O
  O78      1.0000 0.74778  0.29813  0.25342  Biso   1.000  O
  O79      1.0000 0.24538  0.79813  0.24658  Biso   1.000  O
  O80      1.0000 0.25462  0.29813  0.25342  Biso   1.000  O
