data_image0
_cell_length_a       3.9264
_cell_length_b       30.3622
_cell_length_c       7.8528
_cell_angle_alpha    90
_cell_angle_beta     90
_cell_angle_gamma    90

_symmetry_space_group_name_H-M    "P 1"
_symmetry_int_tables_number       1

loop_
  _symmetry_equiv_pos_as_xyz
  'x, y, z'

loop_
  _atom_site_label
  _atom_site_occupancy
  _atom_site_fract_x
  _atom_site_fract_y
  _atom_site_fract_z
  _atom_site_thermal_displace_type
  _atom_site_B_iso_or_equiv
  _atom_site_type_symbol
  K1       1.0000 0.50000  0.99114  0.25000  Biso   1.000  K
  K2       1.0000 0.50000  0.50886  0.25000  Biso   1.000  K
  K3       1.0000 0.50000  0.00886  0.75000  Biso   1.000  K
  K4       1.0000 0.50000  0.49114  0.75000  Biso   1.000  K
  Pb1      1.0000 0.49911  0.82286  0.25045  Biso   1.000  Pb
  Pb2      1.0000 0.50089  0.32388  0.24955  Biso   1.000  Pb
  Pb3      1.0000 0.49911  0.82388  0.75045  Biso   1.000  Pb
  Pb4      1.0000 0.50089  0.32286  0.74955  Biso   1.000  Pb
  Pb5      1.0000 0.49911  0.67612  0.75045  Biso   1.000  Pb
  Pb6      1.0000 0.50089  0.17714  0.74955  Biso   1.000  Pb
  Pb7      1.0000 0.49911  0.67714  0.25045  Biso   1.000  Pb
  Pb8      1.0000 0.50089  0.17612  0.24955  Biso   1.000  Pb
  Nb1      1.0000 0.00045  0.75000  0.50005  Biso   1.000  Nb
  Nb2      1.0000 0.99955  0.25000  0.49995  Biso   1.000  Nb
  Nb3      1.0000 0.00045  0.75000  0.99951  Biso   1.000  Nb
  Nb4      1.0000 0.99955  0.25000  0.00049  Biso   1.000  Nb
  Ta1      1.0000 0.99420  0.89358  0.50211  Biso   1.000  Ta
  Ta2      1.0000 0.00580  0.39358  0.49789  Biso   1.000  Ta
  Ta3      1.0000 0.99420  0.89358  0.00369  Biso   1.000  Ta
  Ta4      1.0000 0.00580  0.39358  0.99631  Biso   1.000  Ta
  Ta5      1.0000 0.99420  0.60642  0.50211  Biso   1.000  Ta
  Ta6      1.0000 0.00580  0.10642  0.49789  Biso   1.000  Ta
  Ta7      1.0000 0.99420  0.60642  0.00369  Biso   1.000  Ta
  Ta8      1.0000 0.00580  0.10642  0.99631  Biso   1.000  Ta
  O1       1.0000 0.99240  0.75000  0.25200  Biso   1.000  O
  O2       1.0000 0.00760  0.25000  0.24800  Biso   1.000  O
  O3       1.0000 0.99240  0.75000  0.75200  Biso   1.000  O
  O4       1.0000 0.00760  0.25000  0.74800  Biso   1.000  O
  O5       1.0000 0.49600  0.75000  0.50369  Biso   1.000  O
  O6       1.0000 0.50400  0.25000  0.49631  Biso   1.000  O
  O7       1.0000 0.49600  0.75000  0.00391  Biso   1.000  O
  O8       1.0000 0.50400  0.25000  0.99609  Biso   1.000  O
  O9       1.0000 0.99536  0.81512  0.50322  Biso   1.000  O
  O10      1.0000 0.00464  0.31512  0.49678  Biso   1.000  O
  O11      1.0000 0.99536  0.81512  0.00142  Biso   1.000  O
  O12      1.0000 0.00464  0.31512  0.99858  Biso   1.000  O
  O13      1.0000 0.99536  0.68488  0.50322  Biso   1.000  O
  O14      1.0000 0.00464  0.18488  0.49678  Biso   1.000  O
  O15      1.0000 0.99536  0.68488  0.00142  Biso   1.000  O
  O16      1.0000 0.00464  0.18488  0.99858  Biso   1.000  O
  O17      1.0000 0.99717  0.87930  0.25120  Biso   1.000  O
  O18      1.0000 0.00283  0.38306  0.24880  Biso   1.000  O
  O19      1.0000 0.99717  0.88306  0.75120  Biso   1.000  O
  O20      1.0000 0.00283  0.37930  0.74880  Biso   1.000  O
  O21      1.0000 0.99717  0.61694  0.75120  Biso   1.000  O
  O22      1.0000 0.00283  0.12070  0.74880  Biso   1.000  O
  O23      1.0000 0.99717  0.62070  0.25120  Biso   1.000  O
  O24      1.0000 0.00283  0.11694  0.24880  Biso   1.000  O
  O25      1.0000 0.49760  0.61882  0.50121  Biso   1.000  O
  O26      1.0000 0.50240  0.11882  0.49879  Biso   1.000  O
  O27      1.0000 0.49760  0.61882  0.00162  Biso   1.000  O
  O28      1.0000 0.50240  0.11882  0.99838  Biso   1.000  O
  O29      1.0000 0.49760  0.88118  0.50121  Biso   1.000  O
  O30      1.0000 0.50240  0.38118  0.49879  Biso   1.000  O
  O31      1.0000 0.49760  0.88118  0.00162  Biso   1.000  O
  O32      1.0000 0.50240  0.38118  0.99838  Biso   1.000  O
  O33      1.0000 0.99760  0.95187  0.49778  Biso   1.000  O
  O34      1.0000 0.00240  0.45187  0.50222  Biso   1.000  O
  O35      1.0000 0.99760  0.95187  0.00462  Biso   1.000  O
  O36      1.0000 0.00240  0.45187  0.99538  Biso   1.000  O
  O37      1.0000 0.99760  0.54813  0.49778  Biso   1.000  O
  O38      1.0000 0.00240  0.04813  0.50222  Biso   1.000  O
  O39      1.0000 0.99760  0.54813  0.00462  Biso   1.000  O
  O40      1.0000 0.00240  0.04813  0.99538  Biso   1.000  O
