data_image0
_cell_length_a       16.1647
_cell_length_b       16.1647
_cell_length_c       7.8528
_cell_angle_alpha    104.058
_cell_angle_beta     104.058
_cell_angle_gamma    139.818

_symmetry_space_group_name_H-M    "P 1"
_symmetry_int_tables_number       1

loop_
  _symmetry_equiv_pos_as_xyz
  'x, y, z'

loop_
  _atom_site_label
  _atom_site_occupancy
  _atom_site_fract_x
  _atom_site_fract_y
  _atom_site_fract_z
  _atom_site_thermal_displace_type
  _atom_site_B_iso_or_equiv
  _atom_site_type_symbol
  K1       1.0000 0.75886  0.74114  0.00000  Biso   1.000  K
  K2       1.0000 0.24114  0.25886  0.00000  Biso   1.000  K
  K3       1.0000 0.74114  0.75886  0.50000  Biso   1.000  K
  K4       1.0000 0.25886  0.24114  0.50000  Biso   1.000  K
  Pb1      1.0000 0.92949  0.57520  0.00000  Biso   1.000  Pb
  Pb2      1.0000 0.42846  0.07623  0.00000  Biso   1.000  Pb
  Pb3      1.0000 0.92377  0.57154  0.50000  Biso   1.000  Pb
  Pb4      1.0000 0.42480  0.07051  0.50000  Biso   1.000  Pb
  Pb5      1.0000 0.07623  0.42846  0.50000  Biso   1.000  Pb
  Pb6      1.0000 0.57520  0.92949  0.50000  Biso   1.000  Pb
  Pb7      1.0000 0.07051  0.42480  0.00000  Biso   1.000  Pb
  Pb8      1.0000 0.57154  0.92377  0.00000  Biso   1.000  Pb
  Nb1      1.0000 0.75000  0.25000  0.00027  Biso   1.000  Nb
  Nb2      1.0000 0.25000  0.75000  0.99973  Biso   1.000  Nb
  Nb3      1.0000 0.75000  0.25000  0.49973  Biso   1.000  Nb
  Nb4      1.0000 0.25000  0.75000  0.50027  Biso   1.000  Nb
  Ta1      1.0000 0.60695  0.39411  0.99921  Biso   1.000  Ta
  Ta2      1.0000 0.10695  0.89411  0.00079  Biso   1.000  Ta
  Ta3      1.0000 0.60589  0.39305  0.50079  Biso   1.000  Ta
  Ta4      1.0000 0.10589  0.89305  0.49921  Biso   1.000  Ta
  Ta5      1.0000 0.89305  0.10589  0.99921  Biso   1.000  Ta
  Ta6      1.0000 0.39305  0.60589  0.00079  Biso   1.000  Ta
  Ta7      1.0000 0.89411  0.10695  0.50079  Biso   1.000  Ta
  Ta8      1.0000 0.39411  0.60695  0.49921  Biso   1.000  Ta
  O1       1.0000 0.74670  0.25330  0.75000  Biso   1.000  O
  O2       1.0000 0.24670  0.75330  0.75000  Biso   1.000  O
  O3       1.0000 0.75330  0.24670  0.25000  Biso   1.000  O
  O4       1.0000 0.25330  0.74670  0.25000  Biso   1.000  O
  O5       1.0000 0.50330  0.99670  0.74989  Biso   1.000  O
  O6       1.0000 0.00330  0.49670  0.75011  Biso   1.000  O
  O7       1.0000 0.49670  0.00330  0.25011  Biso   1.000  O
  O8       1.0000 0.99670  0.50330  0.24989  Biso   1.000  O
  O9       1.0000 0.68173  0.31197  0.00090  Biso   1.000  O
  O10      1.0000 0.18173  0.81197  0.99910  Biso   1.000  O
  O11      1.0000 0.68803  0.31827  0.49910  Biso   1.000  O
  O12      1.0000 0.18803  0.81827  0.50090  Biso   1.000  O
  O13      1.0000 0.81827  0.18803  0.00090  Biso   1.000  O
  O14      1.0000 0.31827  0.68803  0.99910  Biso   1.000  O
  O15      1.0000 0.81197  0.18173  0.49910  Biso   1.000  O
  O16      1.0000 0.31197  0.68173  0.50090  Biso   1.000  O
  O17      1.0000 0.62255  0.37745  0.75000  Biso   1.000  O
  O18      1.0000 0.11880  0.88120  0.75000  Biso   1.000  O
  O19      1.0000 0.61509  0.38491  0.25000  Biso   1.000  O
  O20      1.0000 0.11884  0.88116  0.25000  Biso   1.000  O
  O21      1.0000 0.88120  0.11880  0.25000  Biso   1.000  O
  O22      1.0000 0.37745  0.62255  0.25000  Biso   1.000  O
  O23      1.0000 0.88116  0.11884  0.75000  Biso   1.000  O
  O24      1.0000 0.38491  0.61509  0.75000  Biso   1.000  O
  O25      1.0000 0.62933  0.87067  0.74979  Biso   1.000  O
  O26      1.0000 0.12933  0.37067  0.75021  Biso   1.000  O
  O27      1.0000 0.63303  0.86697  0.25021  Biso   1.000  O
  O28      1.0000 0.13303  0.36697  0.24979  Biso   1.000  O
  O29      1.0000 0.36697  0.13303  0.74979  Biso   1.000  O
  O30      1.0000 0.86697  0.63303  0.75021  Biso   1.000  O
  O31      1.0000 0.37067  0.12933  0.25021  Biso   1.000  O
  O32      1.0000 0.87067  0.62933  0.24979  Biso   1.000  O
  O33      1.0000 0.55000  0.45374  0.99658  Biso   1.000  O
  O34      1.0000 0.05000  0.95374  0.00342  Biso   1.000  O
  O35      1.0000 0.54626  0.45000  0.50342  Biso   1.000  O
  O36      1.0000 0.04626  0.95000  0.49658  Biso   1.000  O
  O37      1.0000 0.95000  0.04626  0.99658  Biso   1.000  O
  O38      1.0000 0.45000  0.54626  0.00342  Biso   1.000  O
  O39      1.0000 0.95374  0.05000  0.50342  Biso   1.000  O
  O40      1.0000 0.45374  0.55000  0.49658  Biso   1.000  O
