data_image0
_cell_length_a       16.1647
_cell_length_b       7.8528
_cell_length_c       16.1647
_cell_angle_alpha    75.9423
_cell_angle_beta     28.1154
_cell_angle_gamma    75.9423

_symmetry_space_group_name_H-M    "P 1"
_symmetry_int_tables_number       1

loop_
  _symmetry_equiv_pos_as_xyz
  'x, y, z'

loop_
  _atom_site_label
  _atom_site_occupancy
  _atom_site_fract_x
  _atom_site_fract_y
  _atom_site_fract_z
  _atom_site_thermal_displace_type
  _atom_site_B_iso_or_equiv
  _atom_site_type_symbol
  K1       1.0000 0.94593  0.48136  0.51864  Biso   1.000  K
  K2       1.0000 0.48136  0.94593  0.05407  Biso   1.000  K
  K3       1.0000 0.45235  0.45235  0.04765  Biso   1.000  K
  K4       1.0000 0.95235  0.95235  0.54765  Biso   1.000  K
  Pb1      1.0000 0.77848  0.63379  0.36621  Biso   1.000  Pb
  Pb2      1.0000 0.28053  0.13174  0.86826  Biso   1.000  Pb
  Pb3      1.0000 0.28323  0.63649  0.86351  Biso   1.000  Pb
  Pb4      1.0000 0.78323  0.13649  0.36351  Biso   1.000  Pb
  Pb5      1.0000 0.13649  0.78323  0.71677  Biso   1.000  Pb
  Pb6      1.0000 0.63649  0.28323  0.21677  Biso   1.000  Pb
  Pb7      1.0000 0.63379  0.77848  0.22152  Biso   1.000  Pb
  Pb8      1.0000 0.13174  0.28053  0.71947  Biso   1.000  Pb
  Nb1      1.0000 0.95827  0.45773  0.04173  Biso   1.000  Nb
  Nb2      1.0000 0.45773  0.95827  0.54227  Biso   1.000  Nb
  Nb3      1.0000 0.45773  0.45773  0.54227  Biso   1.000  Nb
  Nb4      1.0000 0.95827  0.95827  0.04173  Biso   1.000  Nb
  Ta1      1.0000 0.10166  0.31608  0.18550  Biso   1.000  Ta
  Ta2      1.0000 0.60324  0.81450  0.68392  Biso   1.000  Ta
  Ta3      1.0000 0.60150  0.31434  0.68566  Biso   1.000  Ta
  Ta4      1.0000 0.09992  0.81276  0.18724  Biso   1.000  Ta
  Ta5      1.0000 0.81450  0.60324  0.89834  Biso   1.000  Ta
  Ta6      1.0000 0.31608  0.10166  0.39676  Biso   1.000  Ta
  Ta7      1.0000 0.31434  0.60150  0.39850  Biso   1.000  Ta
  Ta8      1.0000 0.81276  0.09992  0.90008  Biso   1.000  Ta
  O1       1.0000 0.70800  0.45811  0.29200  Biso   1.000  O
  O2       1.0000 0.20800  0.95789  0.79200  Biso   1.000  O
  O3       1.0000 0.20800  0.45811  0.79200  Biso   1.000  O
  O4       1.0000 0.70800  0.95789  0.29200  Biso   1.000  O
  O5       1.0000 0.95789  0.20800  0.04211  Biso   1.000  O
  O6       1.0000 0.45811  0.70800  0.54189  Biso   1.000  O
  O7       1.0000 0.45811  0.20800  0.54189  Biso   1.000  O
  O8       1.0000 0.95789  0.70800  0.04211  Biso   1.000  O
  O9       1.0000 0.02316  0.39111  0.10708  Biso   1.000  O
  O10      1.0000 0.52135  0.89292  0.60889  Biso   1.000  O
  O11      1.0000 0.52308  0.39284  0.60716  Biso   1.000  O
  O12      1.0000 0.02489  0.89465  0.10535  Biso   1.000  O
  O13      1.0000 0.89292  0.52135  0.97684  Biso   1.000  O
  O14      1.0000 0.39111  0.02316  0.47865  Biso   1.000  O
  O15      1.0000 0.39284  0.52308  0.47692  Biso   1.000  O
  O16      1.0000 0.89465  0.02489  0.97511  Biso   1.000  O
  O17      1.0000 0.83861  0.32760  0.42261  Biso   1.000  O
  O18      1.0000 0.34236  0.82343  0.92636  Biso   1.000  O
  O19      1.0000 0.33975  0.32645  0.92375  Biso   1.000  O
  O20      1.0000 0.83600  0.82979  0.42000  Biso   1.000  O
  O21      1.0000 0.07625  0.58996  0.66025  Biso   1.000  O
  O22      1.0000 0.58000  0.08579  0.16400  Biso   1.000  O
  O23      1.0000 0.57739  0.58881  0.16139  Biso   1.000  O
  O24      1.0000 0.07364  0.09215  0.65764  Biso   1.000  O
  O25      1.0000 0.82343  0.34236  0.90785  Biso   1.000  O
  O26      1.0000 0.32760  0.83861  0.41119  Biso   1.000  O
  O27      1.0000 0.32645  0.33975  0.41004  Biso   1.000  O
  O28      1.0000 0.82979  0.83600  0.91421  Biso   1.000  O
  O29      1.0000 0.09215  0.07364  0.17657  Biso   1.000  O
  O30      1.0000 0.58881  0.57739  0.67240  Biso   1.000  O
  O31      1.0000 0.58996  0.07625  0.67355  Biso   1.000  O
  O32      1.0000 0.08579  0.58000  0.17021  Biso   1.000  O
  O33      1.0000 0.15880  0.26189  0.24494  Biso   1.000  O
  O34      1.0000 0.66563  0.75506  0.73811  Biso   1.000  O
  O35      1.0000 0.66094  0.25720  0.74280  Biso   1.000  O
  O36      1.0000 0.15410  0.75036  0.24964  Biso   1.000  O
  O37      1.0000 0.75506  0.66563  0.84120  Biso   1.000  O
  O38      1.0000 0.26189  0.15880  0.33437  Biso   1.000  O
  O39      1.0000 0.25720  0.66094  0.33906  Biso   1.000  O
  O40      1.0000 0.75036  0.15410  0.84590  Biso   1.000  O
