data_image0
_cell_length_a       15.1811
_cell_length_b       7.8528
_cell_length_c       7.8528
_cell_angle_alpha    90
_cell_angle_beta     90
_cell_angle_gamma    90

_symmetry_space_group_name_H-M    "P 1"
_symmetry_int_tables_number       1

loop_
  _symmetry_equiv_pos_as_xyz
  'x, y, z'

loop_
  _atom_site_label
  _atom_site_occupancy
  _atom_site_fract_x
  _atom_site_fract_y
  _atom_site_fract_z
  _atom_site_thermal_displace_type
  _atom_site_B_iso_or_equiv
  _atom_site_type_symbol
  K1       1.0000 0.50000  0.22425  0.70304  Biso   1.000  K
  K2       1.0000 0.50000  0.19175  0.19175  Biso   1.000  K
  K3       1.0000 0.50000  0.71296  0.71296  Biso   1.000  K
  K4       1.0000 0.50000  0.70304  0.22425  Biso   1.000  K
  Pb1      1.0000 0.85326  0.20614  0.70614  Biso   1.000  Pb
  Pb2      1.0000 0.85326  0.20986  0.20986  Biso   1.000  Pb
  Pb3      1.0000 0.85326  0.70986  0.70986  Biso   1.000  Pb
  Pb4      1.0000 0.85326  0.70614  0.20614  Biso   1.000  Pb
  Pb5      1.0000 0.14674  0.20986  0.20986  Biso   1.000  Pb
  Pb6      1.0000 0.14674  0.20614  0.70614  Biso   1.000  Pb
  Pb7      1.0000 0.14674  0.70614  0.20614  Biso   1.000  Pb
  Pb8      1.0000 0.14674  0.70986  0.70986  Biso   1.000  Pb
  Nb1      1.0000 0.00000  0.95800  0.95800  Biso   1.000  Nb
  Nb2      1.0000 0.00000  0.95800  0.45800  Biso   1.000  Nb
  Nb3      1.0000 0.00000  0.45800  0.95800  Biso   1.000  Nb
  Nb4      1.0000 0.00000  0.45800  0.45800  Biso   1.000  Nb
  Ta1      1.0000 0.71284  0.95887  0.95887  Biso   1.000  Ta
  Ta2      1.0000 0.71284  0.95713  0.45713  Biso   1.000  Ta
  Ta3      1.0000 0.71284  0.45713  0.95713  Biso   1.000  Ta
  Ta4      1.0000 0.71284  0.45887  0.45887  Biso   1.000  Ta
  Ta5      1.0000 0.28716  0.95887  0.95887  Biso   1.000  Ta
  Ta6      1.0000 0.28716  0.95713  0.45713  Biso   1.000  Ta
  Ta7      1.0000 0.28716  0.45713  0.95713  Biso   1.000  Ta
  Ta8      1.0000 0.28716  0.45887  0.45887  Biso   1.000  Ta
  O1       1.0000 0.00000  0.95800  0.70800  Biso   1.000  O
  O2       1.0000 0.00000  0.95800  0.20800  Biso   1.000  O
  O3       1.0000 0.00000  0.45800  0.70800  Biso   1.000  O
  O4       1.0000 0.00000  0.45800  0.20800  Biso   1.000  O
  O5       1.0000 0.00000  0.70800  0.95800  Biso   1.000  O
  O6       1.0000 0.00000  0.70800  0.45800  Biso   1.000  O
  O7       1.0000 0.00000  0.20800  0.95800  Biso   1.000  O
  O8       1.0000 0.00000  0.20800  0.45800  Biso   1.000  O
  O9       1.0000 0.86976  0.95713  0.95713  Biso   1.000  O
  O10      1.0000 0.86976  0.95887  0.45887  Biso   1.000  O
  O11      1.0000 0.86976  0.45887  0.95887  Biso   1.000  O
  O12      1.0000 0.86976  0.45713  0.45713  Biso   1.000  O
  O13      1.0000 0.13024  0.95713  0.95713  Biso   1.000  O
  O14      1.0000 0.13024  0.95887  0.45887  Biso   1.000  O
  O15      1.0000 0.13024  0.45887  0.95887  Biso   1.000  O
  O16      1.0000 0.13024  0.45713  0.45713  Biso   1.000  O
  O17      1.0000 0.73503  0.95800  0.70800  Biso   1.000  O
  O18      1.0000 0.74025  0.95800  0.20800  Biso   1.000  O
  O19      1.0000 0.74025  0.45800  0.70800  Biso   1.000  O
  O20      1.0000 0.73503  0.45800  0.20800  Biso   1.000  O
  O21      1.0000 0.25975  0.95800  0.20800  Biso   1.000  O
  O22      1.0000 0.26497  0.95800  0.70800  Biso   1.000  O
  O23      1.0000 0.26497  0.45800  0.20800  Biso   1.000  O
  O24      1.0000 0.25975  0.45800  0.70800  Biso   1.000  O
  O25      1.0000 0.26497  0.70800  0.95800  Biso   1.000  O
  O26      1.0000 0.25975  0.70800  0.45800  Biso   1.000  O
  O27      1.0000 0.25975  0.20800  0.95800  Biso   1.000  O
  O28      1.0000 0.26497  0.20800  0.45800  Biso   1.000  O
  O29      1.0000 0.73503  0.70800  0.95800  Biso   1.000  O
  O30      1.0000 0.74025  0.70800  0.45800  Biso   1.000  O
  O31      1.0000 0.74025  0.20800  0.95800  Biso   1.000  O
  O32      1.0000 0.73503  0.20800  0.45800  Biso   1.000  O
  O33      1.0000 0.59626  0.96035  0.96035  Biso   1.000  O
  O34      1.0000 0.59626  0.95565  0.45565  Biso   1.000  O
  O35      1.0000 0.59626  0.45565  0.95565  Biso   1.000  O
  O36      1.0000 0.59626  0.46035  0.46035  Biso   1.000  O
  O37      1.0000 0.40374  0.96035  0.96035  Biso   1.000  O
  O38      1.0000 0.40374  0.95565  0.45565  Biso   1.000  O
  O39      1.0000 0.40374  0.45565  0.95565  Biso   1.000  O
  O40      1.0000 0.40374  0.46035  0.46035  Biso   1.000  O
