data_image0
_cell_length_a       7.8528
_cell_length_b       15.1811
_cell_length_c       7.8528
_cell_angle_alpha    90
_cell_angle_beta     90
_cell_angle_gamma    90

_symmetry_space_group_name_H-M    "P 1"
_symmetry_int_tables_number       1

loop_
  _symmetry_equiv_pos_as_xyz
  'x, y, z'

loop_
  _atom_site_label
  _atom_site_occupancy
  _atom_site_fract_x
  _atom_site_fract_y
  _atom_site_fract_z
  _atom_site_thermal_displace_type
  _atom_site_B_iso_or_equiv
  _atom_site_type_symbol
  K1       1.0000 0.25000  0.50000  0.26061  Biso   1.000  K
  K2       1.0000 0.75000  0.50000  0.23939  Biso   1.000  K
  K3       1.0000 0.25000  0.50000  0.76061  Biso   1.000  K
  K4       1.0000 0.75000  0.50000  0.73939  Biso   1.000  K
  Pb1      1.0000 0.25235  0.14674  0.25235  Biso   1.000  Pb
  Pb2      1.0000 0.74765  0.14674  0.24765  Biso   1.000  Pb
  Pb3      1.0000 0.24765  0.14674  0.74765  Biso   1.000  Pb
  Pb4      1.0000 0.75235  0.14674  0.75235  Biso   1.000  Pb
  Pb5      1.0000 0.75235  0.85326  0.25235  Biso   1.000  Pb
  Pb6      1.0000 0.24765  0.85326  0.24765  Biso   1.000  Pb
  Pb7      1.0000 0.74765  0.85326  0.74765  Biso   1.000  Pb
  Pb8      1.0000 0.25235  0.85326  0.75235  Biso   1.000  Pb
  Nb1      1.0000 0.00000  0.00000  0.00000  Biso   1.000  Nb
  Nb2      1.0000 0.50000  0.00000  0.00000  Biso   1.000  Nb
  Nb3      1.0000 0.00000  0.00000  0.50000  Biso   1.000  Nb
  Nb4      1.0000 0.50000  0.00000  0.50000  Biso   1.000  Nb
  Ta1      1.0000 0.00053  0.28716  0.00053  Biso   1.000  Ta
  Ta2      1.0000 0.49947  0.28716  0.99947  Biso   1.000  Ta
  Ta3      1.0000 0.99947  0.28716  0.49947  Biso   1.000  Ta
  Ta4      1.0000 0.50053  0.28716  0.50053  Biso   1.000  Ta
  Ta5      1.0000 0.99947  0.71284  0.99947  Biso   1.000  Ta
  Ta6      1.0000 0.50053  0.71284  0.00053  Biso   1.000  Ta
  Ta7      1.0000 0.00053  0.71284  0.50053  Biso   1.000  Ta
  Ta8      1.0000 0.49947  0.71284  0.49947  Biso   1.000  Ta
  O1       1.0000 0.25000  0.00661  0.00000  Biso   1.000  O
  O2       1.0000 0.75000  0.99339  0.00000  Biso   1.000  O
  O3       1.0000 0.25000  0.99339  0.50000  Biso   1.000  O
  O4       1.0000 0.75000  0.00661  0.50000  Biso   1.000  O
  O5       1.0000 0.00000  0.99339  0.75000  Biso   1.000  O
  O6       1.0000 0.50000  0.00661  0.75000  Biso   1.000  O
  O7       1.0000 0.00000  0.00661  0.25000  Biso   1.000  O
  O8       1.0000 0.50000  0.99339  0.25000  Biso   1.000  O
  O9       1.0000 0.99685  0.13024  0.99685  Biso   1.000  O
  O10      1.0000 0.50315  0.13024  0.00315  Biso   1.000  O
  O11      1.0000 0.00315  0.13024  0.50315  Biso   1.000  O
  O12      1.0000 0.49685  0.13024  0.49685  Biso   1.000  O
  O13      1.0000 0.00315  0.86976  0.00315  Biso   1.000  O
  O14      1.0000 0.49685  0.86976  0.99685  Biso   1.000  O
  O15      1.0000 0.99685  0.86976  0.49685  Biso   1.000  O
  O16      1.0000 0.50315  0.86976  0.50315  Biso   1.000  O
  O17      1.0000 0.25000  0.25865  0.00000  Biso   1.000  O
  O18      1.0000 0.75000  0.26607  0.00000  Biso   1.000  O
  O19      1.0000 0.25000  0.26607  0.50000  Biso   1.000  O
  O20      1.0000 0.75000  0.25865  0.50000  Biso   1.000  O
  O21      1.0000 0.75000  0.74135  0.00000  Biso   1.000  O
  O22      1.0000 0.25000  0.73393  0.00000  Biso   1.000  O
  O23      1.0000 0.75000  0.73393  0.50000  Biso   1.000  O
  O24      1.0000 0.25000  0.74135  0.50000  Biso   1.000  O
  O25      1.0000 0.00000  0.74135  0.75000  Biso   1.000  O
  O26      1.0000 0.50000  0.73393  0.75000  Biso   1.000  O
  O27      1.0000 0.00000  0.73393  0.25000  Biso   1.000  O
  O28      1.0000 0.50000  0.74135  0.25000  Biso   1.000  O
  O29      1.0000 0.00000  0.26607  0.75000  Biso   1.000  O
  O30      1.0000 0.50000  0.25865  0.75000  Biso   1.000  O
  O31      1.0000 0.00000  0.25865  0.25000  Biso   1.000  O
  O32      1.0000 0.50000  0.26607  0.25000  Biso   1.000  O
  O33      1.0000 0.00187  0.40374  0.00187  Biso   1.000  O
  O34      1.0000 0.49813  0.40374  0.99813  Biso   1.000  O
  O35      1.0000 0.99813  0.40374  0.49813  Biso   1.000  O
  O36      1.0000 0.50187  0.40374  0.50187  Biso   1.000  O
  O37      1.0000 0.99813  0.59626  0.99813  Biso   1.000  O
  O38      1.0000 0.50187  0.59626  0.00187  Biso   1.000  O
  O39      1.0000 0.00187  0.59626  0.50187  Biso   1.000  O
  O40      1.0000 0.49813  0.59626  0.49813  Biso   1.000  O
