data_image0
_cell_length_a       7.8528
_cell_length_b       30.3622
_cell_length_c       11.1055
_cell_angle_alpha    90
_cell_angle_beta     135
_cell_angle_gamma    90

_symmetry_space_group_name_H-M    "P 1"
_symmetry_int_tables_number       1

loop_
  _symmetry_equiv_pos_as_xyz
  'x, y, z'

loop_
  _atom_site_label
  _atom_site_occupancy
  _atom_site_fract_x
  _atom_site_fract_y
  _atom_site_fract_z
  _atom_site_thermal_displace_type
  _atom_site_B_iso_or_equiv
  _atom_site_type_symbol
  K1       1.0000 0.00000  0.48828  0.25000  Biso   1.000  K
  K2       1.0000 0.00000  0.98828  0.25000  Biso   1.000  K
  K3       1.0000 0.50000  0.50000  0.25000  Biso   1.000  K
  K4       1.0000 0.50000  1.00000  0.25000  Biso   1.000  K
  K5       1.0000 0.50000  0.50000  0.75000  Biso   1.000  K
  K6       1.0000 0.50000  0.00000  0.75000  Biso   1.000  K
  K7       1.0000 1.00000  0.51172  0.75000  Biso   1.000  K
  K8       1.0000 1.00000  0.01172  0.75000  Biso   1.000  K
  Pb1      1.0000 0.00339  0.67571  0.25214  Biso   1.000  Pb
  Pb2      1.0000 0.99661  0.17571  0.24786  Biso   1.000  Pb
  Pb3      1.0000 0.50339  0.67663  0.25214  Biso   1.000  Pb
  Pb4      1.0000 0.49661  0.17663  0.24786  Biso   1.000  Pb
  Pb5      1.0000 0.50339  0.67663  0.75214  Biso   1.000  Pb
  Pb6      1.0000 0.49661  0.17663  0.74786  Biso   1.000  Pb
  Pb7      1.0000 0.00339  0.67755  0.75214  Biso   1.000  Pb
  Pb8      1.0000 0.99661  0.17755  0.74786  Biso   1.000  Pb
  Pb9      1.0000 0.50339  0.82337  0.25214  Biso   1.000  Pb
  Pb10     1.0000 0.49661  0.32337  0.24786  Biso   1.000  Pb
  Pb11     1.0000 0.00339  0.82245  0.25214  Biso   1.000  Pb
  Pb12     1.0000 0.99661  0.32245  0.24786  Biso   1.000  Pb
  Pb13     1.0000 0.00339  0.82429  0.75214  Biso   1.000  Pb
  Pb14     1.0000 0.99661  0.32429  0.74786  Biso   1.000  Pb
  Pb15     1.0000 0.50339  0.82337  0.75214  Biso   1.000  Pb
  Pb16     1.0000 0.49661  0.32337  0.74786  Biso   1.000  Pb
  Nb1      1.0000 0.00159  0.75000  0.50057  Biso   1.000  Nb
  Nb2      1.0000 0.99841  0.25000  0.49943  Biso   1.000  Nb
  Nb3      1.0000 0.50159  0.75000  0.50057  Biso   1.000  Nb
  Nb4      1.0000 0.49841  0.25000  0.49943  Biso   1.000  Nb
  Nb5      1.0000 0.50159  0.75000  0.00057  Biso   1.000  Nb
  Nb6      1.0000 0.49841  0.25000  0.99943  Biso   1.000  Nb
  Nb7      1.0000 0.00159  0.75000  0.00057  Biso   1.000  Nb
  Nb8      1.0000 0.99841  0.25000  0.99943  Biso   1.000  Nb
  Ta1      1.0000 0.00656  0.60642  0.50691  Biso   1.000  Ta
  Ta2      1.0000 0.99344  0.10642  0.49455  Biso   1.000  Ta
  Ta3      1.0000 0.50803  0.60642  0.50691  Biso   1.000  Ta
  Ta4      1.0000 0.49490  0.10642  0.49455  Biso   1.000  Ta
  Ta5      1.0000 0.50510  0.60642  0.00545  Biso   1.000  Ta
  Ta6      1.0000 0.49197  0.10642  0.99309  Biso   1.000  Ta
  Ta7      1.0000 0.00656  0.60642  0.00545  Biso   1.000  Ta
  Ta8      1.0000 0.99344  0.10642  0.99309  Biso   1.000  Ta
  Ta9      1.0000 0.00656  0.89358  0.50545  Biso   1.000  Ta
  Ta10     1.0000 0.99344  0.39358  0.49309  Biso   1.000  Ta
  Ta11     1.0000 0.50510  0.89358  0.50545  Biso   1.000  Ta
  Ta12     1.0000 0.49197  0.39358  0.49309  Biso   1.000  Ta
  Ta13     1.0000 0.50803  0.89358  0.00691  Biso   1.000  Ta
  Ta14     1.0000 0.49490  0.39358  0.99455  Biso   1.000  Ta
  Ta15     1.0000 0.00656  0.89358  0.00691  Biso   1.000  Ta
  Ta16     1.0000 0.99344  0.39358  0.99455  Biso   1.000  Ta
  O1       1.0000 0.25635  0.75323  0.50665  Biso   1.000  O
  O2       1.0000 0.24365  0.25323  0.49335  Biso   1.000  O
  O3       1.0000 0.75635  0.74677  0.50665  Biso   1.000  O
  O4       1.0000 0.74365  0.24677  0.49335  Biso   1.000  O
  O5       1.0000 0.75635  0.75323  0.00665  Biso   1.000  O
  O6       1.0000 0.74365  0.25323  0.99335  Biso   1.000  O
  O7       1.0000 0.25635  0.74677  0.00665  Biso   1.000  O
  O8       1.0000 0.24365  0.24677  0.99335  Biso   1.000  O
  O9       1.0000 0.25275  0.74678  0.75370  Biso   1.000  O
  O10      1.0000 0.24725  0.24678  0.74630  Biso   1.000  O
  O11      1.0000 0.75275  0.74678  0.75370  Biso   1.000  O
  O12      1.0000 0.74725  0.24678  0.74630  Biso   1.000  O
  O13      1.0000 0.75275  0.75322  0.25370  Biso   1.000  O
  O14      1.0000 0.74725  0.25322  0.24630  Biso   1.000  O
  O15      1.0000 0.25275  0.75322  0.25370  Biso   1.000  O
  O16      1.0000 0.24725  0.25322  0.24630  Biso   1.000  O
  O17      1.0000 0.00387  0.68488  0.50134  Biso   1.000  O
  O18      1.0000 0.99613  0.18488  0.49283  Biso   1.000  O
  O19      1.0000 0.49803  0.68488  0.50134  Biso   1.000  O
  O20      1.0000 0.49030  0.18488  0.49283  Biso   1.000  O
  O21      1.0000 0.50970  0.68488  0.00717  Biso   1.000  O
  O22      1.0000 0.50197  0.18488  0.99866  Biso   1.000  O
  O23      1.0000 0.00387  0.68488  0.00717  Biso   1.000  O
  O24      1.0000 0.99613  0.18488  0.99866  Biso   1.000  O
  O25      1.0000 0.00387  0.81512  0.50717  Biso   1.000  O
  O26      1.0000 0.99613  0.31512  0.49866  Biso   1.000  O
  O27      1.0000 0.50970  0.81512  0.50717  Biso   1.000  O
  O28      1.0000 0.50197  0.31512  0.49866  Biso   1.000  O
  O29      1.0000 0.49803  0.81512  0.00134  Biso   1.000  O
  O30      1.0000 0.49030  0.31512  0.99283  Biso   1.000  O
  O31      1.0000 0.00387  0.81512  0.00134  Biso   1.000  O
  O32      1.0000 0.99613  0.31512  0.99283  Biso   1.000  O
  O33      1.0000 0.25312  0.61581  0.50312  Biso   1.000  O
  O34      1.0000 0.24763  0.11581  0.49763  Biso   1.000  O
  O35      1.0000 0.75312  0.62183  0.50312  Biso   1.000  O
  O36      1.0000 0.74763  0.12183  0.49763  Biso   1.000  O
  O37      1.0000 0.75237  0.61581  0.00237  Biso   1.000  O
  O38      1.0000 0.74688  0.11581  0.99688  Biso   1.000  O
  O39      1.0000 0.25237  0.62183  0.00237  Biso   1.000  O
  O40      1.0000 0.24688  0.12183  0.99688  Biso   1.000  O
  O41      1.0000 0.75237  0.88419  0.50237  Biso   1.000  O
  O42      1.0000 0.74688  0.38419  0.49688  Biso   1.000  O
  O43      1.0000 0.25237  0.87817  0.50237  Biso   1.000  O
  O44      1.0000 0.24688  0.37817  0.49688  Biso   1.000  O
  O45      1.0000 0.25312  0.88419  0.00312  Biso   1.000  O
  O46      1.0000 0.24763  0.38419  0.99763  Biso   1.000  O
  O47      1.0000 0.75312  0.87817  0.00312  Biso   1.000  O
  O48      1.0000 0.74763  0.37817  0.99763  Biso   1.000  O
  O49      1.0000 0.25269  0.88419  0.75240  Biso   1.000  O
  O50      1.0000 0.24806  0.38419  0.74760  Biso   1.000  O
  O51      1.0000 0.75194  0.88419  0.75240  Biso   1.000  O
  O52      1.0000 0.74731  0.38419  0.74760  Biso   1.000  O
  O53      1.0000 0.75269  0.87817  0.25240  Biso   1.000  O
  O54      1.0000 0.74806  0.37817  0.24760  Biso   1.000  O
  O55      1.0000 0.25194  0.87817  0.25240  Biso   1.000  O
  O56      1.0000 0.24731  0.37817  0.24760  Biso   1.000  O
  O57      1.0000 0.25194  0.62183  0.75240  Biso   1.000  O
  O58      1.0000 0.24731  0.12183  0.74760  Biso   1.000  O
  O59      1.0000 0.75269  0.62183  0.75240  Biso   1.000  O
  O60      1.0000 0.74806  0.12183  0.74760  Biso   1.000  O
  O61      1.0000 0.75194  0.61581  0.25240  Biso   1.000  O
  O62      1.0000 0.74731  0.11581  0.24760  Biso   1.000  O
  O63      1.0000 0.25269  0.61581  0.25240  Biso   1.000  O
  O64      1.0000 0.24806  0.11581  0.24760  Biso   1.000  O
  O65      1.0000 0.00262  0.54813  0.50643  Biso   1.000  O
  O66      1.0000 0.99738  0.04813  0.50141  Biso   1.000  O
  O67      1.0000 0.51046  0.54813  0.50643  Biso   1.000  O
  O68      1.0000 0.50522  0.04813  0.50141  Biso   1.000  O
  O69      1.0000 0.49478  0.54813  0.99859  Biso   1.000  O
  O70      1.0000 0.48954  0.04813  0.99357  Biso   1.000  O
  O71      1.0000 0.00262  0.54813  0.99859  Biso   1.000  O
  O72      1.0000 0.99738  0.04813  0.99357  Biso   1.000  O
  O73      1.0000 0.00262  0.95187  0.49859  Biso   1.000  O
  O74      1.0000 0.99738  0.45187  0.49357  Biso   1.000  O
  O75      1.0000 0.49478  0.95187  0.49859  Biso   1.000  O
  O76      1.0000 0.48954  0.45187  0.49357  Biso   1.000  O
  O77      1.0000 0.51046  0.95187  0.00643  Biso   1.000  O
  O78      1.0000 0.50522  0.45187  0.00141  Biso   1.000  O
  O79      1.0000 0.00262  0.95187  0.00643  Biso   1.000  O
  O80      1.0000 0.99738  0.45187  0.00141  Biso   1.000  O
