data_image0
_cell_length_a       15.1811
_cell_length_b       7.8528
_cell_length_c       7.8528
_cell_angle_alpha    90
_cell_angle_beta     90
_cell_angle_gamma    90

_symmetry_space_group_name_H-M    "P 1"
_symmetry_int_tables_number       1

loop_
  _symmetry_equiv_pos_as_xyz
  'x, y, z'

loop_
  _atom_site_label
  _atom_site_occupancy
  _atom_site_fract_x
  _atom_site_fract_y
  _atom_site_fract_z
  _atom_site_thermal_displace_type
  _atom_site_B_iso_or_equiv
  _atom_site_type_symbol
  K1       1.0000 0.47655  0.21365  0.71365  Biso   1.000  K
  K2       1.0000 0.50000  0.20235  0.20235  Biso   1.000  K
  K3       1.0000 0.50000  0.70235  0.70235  Biso   1.000  K
  K4       1.0000 0.52345  0.71365  0.21365  Biso   1.000  K
  Pb1      1.0000 0.85143  0.20614  0.70614  Biso   1.000  Pb
  Pb2      1.0000 0.85326  0.20986  0.20986  Biso   1.000  Pb
  Pb3      1.0000 0.85326  0.70986  0.70986  Biso   1.000  Pb
  Pb4      1.0000 0.85509  0.70614  0.20614  Biso   1.000  Pb
  Pb5      1.0000 0.14674  0.20986  0.20986  Biso   1.000  Pb
  Pb6      1.0000 0.14491  0.20614  0.70614  Biso   1.000  Pb
  Pb7      1.0000 0.14857  0.70614  0.20614  Biso   1.000  Pb
  Pb8      1.0000 0.14674  0.70986  0.70986  Biso   1.000  Pb
  Nb1      1.0000 0.00000  0.95800  0.95800  Biso   1.000  Nb
  Nb2      1.0000 0.00000  0.95800  0.45800  Biso   1.000  Nb
  Nb3      1.0000 0.00000  0.45800  0.95800  Biso   1.000  Nb
  Nb4      1.0000 0.00000  0.45800  0.45800  Biso   1.000  Nb
  Ta1      1.0000 0.71284  0.95814  0.95961  Biso   1.000  Ta
  Ta2      1.0000 0.71284  0.95639  0.45639  Biso   1.000  Ta
  Ta3      1.0000 0.71284  0.45786  0.95786  Biso   1.000  Ta
  Ta4      1.0000 0.71284  0.45961  0.45814  Biso   1.000  Ta
  Ta5      1.0000 0.28716  0.95961  0.95814  Biso   1.000  Ta
  Ta6      1.0000 0.28716  0.95786  0.45786  Biso   1.000  Ta
  Ta7      1.0000 0.28716  0.45639  0.95639  Biso   1.000  Ta
  Ta8      1.0000 0.28716  0.45814  0.45961  Biso   1.000  Ta
  O1       1.0000 0.00645  0.95800  0.70800  Biso   1.000  O
  O2       1.0000 0.99355  0.95800  0.20800  Biso   1.000  O
  O3       1.0000 0.00645  0.45800  0.70800  Biso   1.000  O
  O4       1.0000 0.99355  0.45800  0.20800  Biso   1.000  O
  O5       1.0000 0.99355  0.70800  0.95800  Biso   1.000  O
  O6       1.0000 0.99355  0.70800  0.45800  Biso   1.000  O
  O7       1.0000 0.00645  0.20800  0.95800  Biso   1.000  O
  O8       1.0000 0.00645  0.20800  0.45800  Biso   1.000  O
  O9       1.0000 0.86976  0.96005  0.95422  Biso   1.000  O
  O10      1.0000 0.86976  0.96178  0.46178  Biso   1.000  O
  O11      1.0000 0.86976  0.45595  0.95595  Biso   1.000  O
  O12      1.0000 0.86976  0.45422  0.46005  Biso   1.000  O
  O13      1.0000 0.13024  0.95422  0.96005  Biso   1.000  O
  O14      1.0000 0.13024  0.95595  0.45595  Biso   1.000  O
  O15      1.0000 0.13024  0.46178  0.96178  Biso   1.000  O
  O16      1.0000 0.13024  0.46005  0.45422  Biso   1.000  O
  O17      1.0000 0.72901  0.95763  0.70800  Biso   1.000  O
  O18      1.0000 0.74627  0.95763  0.20800  Biso   1.000  O
  O19      1.0000 0.73422  0.45837  0.70800  Biso   1.000  O
  O20      1.0000 0.74106  0.45837  0.20800  Biso   1.000  O
  O21      1.0000 0.26578  0.95837  0.20800  Biso   1.000  O
  O22      1.0000 0.25894  0.95837  0.70800  Biso   1.000  O
  O23      1.0000 0.27099  0.45763  0.20800  Biso   1.000  O
  O24      1.0000 0.25373  0.45763  0.70800  Biso   1.000  O
  O25      1.0000 0.27099  0.70800  0.95763  Biso   1.000  O
  O26      1.0000 0.26578  0.70800  0.45837  Biso   1.000  O
  O27      1.0000 0.25373  0.20800  0.95763  Biso   1.000  O
  O28      1.0000 0.25894  0.20800  0.45837  Biso   1.000  O
  O29      1.0000 0.74106  0.70800  0.95837  Biso   1.000  O
  O30      1.0000 0.74627  0.70800  0.45763  Biso   1.000  O
  O31      1.0000 0.73422  0.20800  0.95837  Biso   1.000  O
  O32      1.0000 0.72901  0.20800  0.45763  Biso   1.000  O
  O33      1.0000 0.59626  0.95642  0.96427  Biso   1.000  O
  O34      1.0000 0.59626  0.95173  0.45173  Biso   1.000  O
  O35      1.0000 0.59626  0.45958  0.95958  Biso   1.000  O
  O36      1.0000 0.59626  0.46427  0.45642  Biso   1.000  O
  O37      1.0000 0.40374  0.96427  0.95642  Biso   1.000  O
  O38      1.0000 0.40374  0.95958  0.45958  Biso   1.000  O
  O39      1.0000 0.40374  0.45173  0.95173  Biso   1.000  O
  O40      1.0000 0.40374  0.45642  0.46427  Biso   1.000  O
