data_image0
_cell_length_a       7.8528
_cell_length_b       7.8528
_cell_length_c       30.3622
_cell_angle_alpha    90
_cell_angle_beta     90
_cell_angle_gamma    90

_symmetry_space_group_name_H-M    "P 1"
_symmetry_int_tables_number       1

loop_
  _symmetry_equiv_pos_as_xyz
  'x, y, z'

loop_
  _atom_site_label
  _atom_site_occupancy
  _atom_site_fract_x
  _atom_site_fract_y
  _atom_site_fract_z
  _atom_site_thermal_displace_type
  _atom_site_B_iso_or_equiv
  _atom_site_type_symbol
  K1       1.0000 0.25253  0.74747  0.73828  Biso   1.000  K
  K2       1.0000 0.24747  0.75253  0.23828  Biso   1.000  K
  K3       1.0000 0.74747  0.75253  0.75000  Biso   1.000  K
  K4       1.0000 0.75253  0.74747  0.25000  Biso   1.000  K
  K5       1.0000 0.24747  0.25253  0.75000  Biso   1.000  K
  K6       1.0000 0.25253  0.24747  0.25000  Biso   1.000  K
  K7       1.0000 0.75253  0.24747  0.76172  Biso   1.000  K
  K8       1.0000 0.74747  0.25253  0.26172  Biso   1.000  K
  Pb1      1.0000 0.24789  0.75211  0.92571  Biso   1.000  Pb
  Pb2      1.0000 0.25211  0.74789  0.42571  Biso   1.000  Pb
  Pb3      1.0000 0.75211  0.74789  0.92663  Biso   1.000  Pb
  Pb4      1.0000 0.74789  0.75211  0.42663  Biso   1.000  Pb
  Pb5      1.0000 0.25211  0.24789  0.92663  Biso   1.000  Pb
  Pb6      1.0000 0.24789  0.25211  0.42663  Biso   1.000  Pb
  Pb7      1.0000 0.74789  0.25211  0.92755  Biso   1.000  Pb
  Pb8      1.0000 0.75211  0.24789  0.42755  Biso   1.000  Pb
  Pb9      1.0000 0.74789  0.75211  0.07337  Biso   1.000  Pb
  Pb10     1.0000 0.75211  0.74789  0.57337  Biso   1.000  Pb
  Pb11     1.0000 0.25211  0.74789  0.07245  Biso   1.000  Pb
  Pb12     1.0000 0.24789  0.75211  0.57245  Biso   1.000  Pb
  Pb13     1.0000 0.75211  0.24789  0.07429  Biso   1.000  Pb
  Pb14     1.0000 0.74789  0.25211  0.57429  Biso   1.000  Pb
  Pb15     1.0000 0.24789  0.25211  0.07337  Biso   1.000  Pb
  Pb16     1.0000 0.25211  0.24789  0.57337  Biso   1.000  Pb
  Nb1      1.0000 0.00000  0.50000  0.00000  Biso   1.000  Nb
  Nb2      1.0000 0.00000  0.50000  0.50000  Biso   1.000  Nb
  Nb3      1.0000 0.50000  0.50000  0.00000  Biso   1.000  Nb
  Nb4      1.0000 0.50000  0.50000  0.50000  Biso   1.000  Nb
  Nb5      1.0000 0.00000  0.00000  0.00000  Biso   1.000  Nb
  Nb6      1.0000 0.00000  0.00000  0.50000  Biso   1.000  Nb
  Nb7      1.0000 0.50000  0.00000  0.00000  Biso   1.000  Nb
  Nb8      1.0000 0.50000  0.00000  0.50000  Biso   1.000  Nb
  Ta1      1.0000 0.99975  0.49878  0.85642  Biso   1.000  Ta
  Ta2      1.0000 0.99878  0.49975  0.35642  Biso   1.000  Ta
  Ta3      1.0000 0.50025  0.49975  0.85642  Biso   1.000  Ta
  Ta4      1.0000 0.50122  0.49878  0.35642  Biso   1.000  Ta
  Ta5      1.0000 0.99878  0.00122  0.85642  Biso   1.000  Ta
  Ta6      1.0000 0.99975  0.00025  0.35642  Biso   1.000  Ta
  Ta7      1.0000 0.50122  0.00025  0.85642  Biso   1.000  Ta
  Ta8      1.0000 0.50025  0.00122  0.35642  Biso   1.000  Ta
  Ta9      1.0000 0.00025  0.50122  0.14358  Biso   1.000  Ta
  Ta10     1.0000 0.00122  0.50025  0.64358  Biso   1.000  Ta
  Ta11     1.0000 0.49975  0.50025  0.14358  Biso   1.000  Ta
  Ta12     1.0000 0.49878  0.50122  0.64358  Biso   1.000  Ta
  Ta13     1.0000 0.00122  0.99878  0.14358  Biso   1.000  Ta
  Ta14     1.0000 0.00025  0.99975  0.64358  Biso   1.000  Ta
  Ta15     1.0000 0.49878  0.99975  0.14358  Biso   1.000  Ta
  Ta16     1.0000 0.49975  0.99878  0.64358  Biso   1.000  Ta
  O1       1.0000 0.25000  0.50000  0.00014  Biso   1.000  O
  O2       1.0000 0.25000  0.50000  0.50631  Biso   1.000  O
  O3       1.0000 0.75000  0.50000  0.99986  Biso   1.000  O
  O4       1.0000 0.75000  0.50000  0.49369  Biso   1.000  O
  O5       1.0000 0.25000  1.00000  0.00631  Biso   1.000  O
  O6       1.0000 0.25000  1.00000  0.50014  Biso   1.000  O
  O7       1.0000 0.75000  0.00000  0.99369  Biso   1.000  O
  O8       1.0000 0.75000  0.00000  0.49986  Biso   1.000  O
  O9       1.0000 1.00000  0.25000  0.99369  Biso   1.000  O
  O10      1.0000 1.00000  0.25000  0.49986  Biso   1.000  O
  O11      1.0000 0.50000  0.25000  0.99986  Biso   1.000  O
  O12      1.0000 0.50000  0.25000  0.49369  Biso   1.000  O
  O13      1.0000 0.00000  0.75000  0.00631  Biso   1.000  O
  O14      1.0000 0.00000  0.75000  0.50014  Biso   1.000  O
  O15      1.0000 0.50000  0.75000  0.00014  Biso   1.000  O
  O16      1.0000 0.50000  0.75000  0.50631  Biso   1.000  O
  O17      1.0000 0.99998  0.50586  0.93488  Biso   1.000  O
  O18      1.0000 0.00586  0.49998  0.43488  Biso   1.000  O
  O19      1.0000 0.50002  0.49998  0.93488  Biso   1.000  O
  O20      1.0000 0.49415  0.50585  0.43488  Biso   1.000  O
  O21      1.0000 0.00585  0.99415  0.93488  Biso   1.000  O
  O22      1.0000 0.99998  0.00002  0.43488  Biso   1.000  O
  O23      1.0000 0.49414  0.00002  0.93488  Biso   1.000  O
  O24      1.0000 0.50002  0.99414  0.43488  Biso   1.000  O
  O25      1.0000 0.00002  0.49414  0.06512  Biso   1.000  O
  O26      1.0000 0.99414  0.50002  0.56512  Biso   1.000  O
  O27      1.0000 0.49998  0.50002  0.06512  Biso   1.000  O
  O28      1.0000 0.50585  0.49415  0.56512  Biso   1.000  O
  O29      1.0000 0.99415  0.00585  0.06512  Biso   1.000  O
  O30      1.0000 0.00002  0.99998  0.56512  Biso   1.000  O
  O31      1.0000 0.50586  0.99998  0.06512  Biso   1.000  O
  O32      1.0000 0.49998  0.00586  0.56512  Biso   1.000  O
  O33      1.0000 0.25000  0.49963  0.86759  Biso   1.000  O
  O34      1.0000 0.25000  0.49963  0.36402  Biso   1.000  O
  O35      1.0000 0.75000  0.49963  0.87005  Biso   1.000  O
  O36      1.0000 0.75000  0.49963  0.37362  Biso   1.000  O
  O37      1.0000 0.25000  0.00037  0.86402  Biso   1.000  O
  O38      1.0000 0.25000  0.00037  0.36759  Biso   1.000  O
  O39      1.0000 0.75000  0.00037  0.87362  Biso   1.000  O
  O40      1.0000 0.75000  0.00037  0.37005  Biso   1.000  O
  O41      1.0000 0.75000  0.50037  0.13241  Biso   1.000  O
  O42      1.0000 0.75000  0.50037  0.63598  Biso   1.000  O
  O43      1.0000 0.25000  0.50037  0.12995  Biso   1.000  O
  O44      1.0000 0.25000  0.50037  0.62638  Biso   1.000  O
  O45      1.0000 0.75000  0.99963  0.13598  Biso   1.000  O
  O46      1.0000 0.75000  0.99963  0.63241  Biso   1.000  O
  O47      1.0000 0.25000  0.99963  0.12638  Biso   1.000  O
  O48      1.0000 0.25000  0.99963  0.62995  Biso   1.000  O
  O49      1.0000 0.00037  0.25000  0.13598  Biso   1.000  O
  O50      1.0000 0.00037  0.25000  0.63241  Biso   1.000  O
  O51      1.0000 0.49963  0.25000  0.13241  Biso   1.000  O
  O52      1.0000 0.49963  0.25000  0.63598  Biso   1.000  O
  O53      1.0000 0.00037  0.75000  0.12638  Biso   1.000  O
  O54      1.0000 0.00037  0.75000  0.62995  Biso   1.000  O
  O55      1.0000 0.49963  0.75000  0.12995  Biso   1.000  O
  O56      1.0000 0.49963  0.75000  0.62638  Biso   1.000  O
  O57      1.0000 0.99963  0.25000  0.87362  Biso   1.000  O
  O58      1.0000 0.99963  0.25000  0.37005  Biso   1.000  O
  O59      1.0000 0.50037  0.25000  0.87005  Biso   1.000  O
  O60      1.0000 0.50037  0.25000  0.37362  Biso   1.000  O
  O61      1.0000 0.99963  0.75000  0.86402  Biso   1.000  O
  O62      1.0000 0.99963  0.75000  0.36759  Biso   1.000  O
  O63      1.0000 0.50037  0.75000  0.86759  Biso   1.000  O
  O64      1.0000 0.50037  0.75000  0.36402  Biso   1.000  O
  O65      1.0000 0.99800  0.49416  0.79813  Biso   1.000  O
  O66      1.0000 0.99416  0.49800  0.29813  Biso   1.000  O
  O67      1.0000 0.50200  0.49800  0.79813  Biso   1.000  O
  O68      1.0000 0.50584  0.49416  0.29813  Biso   1.000  O
  O69      1.0000 0.99416  0.00584  0.79813  Biso   1.000  O
  O70      1.0000 0.99800  0.00200  0.29813  Biso   1.000  O
  O71      1.0000 0.50584  0.00200  0.79813  Biso   1.000  O
  O72      1.0000 0.50200  0.00584  0.29813  Biso   1.000  O
  O73      1.0000 0.00200  0.50584  0.20187  Biso   1.000  O
  O74      1.0000 0.00584  0.50200  0.70187  Biso   1.000  O
  O75      1.0000 0.49800  0.50200  0.20187  Biso   1.000  O
  O76      1.0000 0.49416  0.50584  0.70187  Biso   1.000  O
  O77      1.0000 0.00584  0.99416  0.20187  Biso   1.000  O
  O78      1.0000 0.00200  0.99800  0.70187  Biso   1.000  O
  O79      1.0000 0.49416  0.99800  0.20187  Biso   1.000  O
  O80      1.0000 0.49800  0.99416  0.70187  Biso   1.000  O
