data_image0
_cell_length_a       7.8528
_cell_length_b       30.3622
_cell_length_c       3.9264
_cell_angle_alpha    90
_cell_angle_beta     90
_cell_angle_gamma    90

_symmetry_space_group_name_H-M    "P 1"
_symmetry_int_tables_number       1

loop_
  _symmetry_equiv_pos_as_xyz
  'x, y, z'

loop_
  _atom_site_label
  _atom_site_occupancy
  _atom_site_fract_x
  _atom_site_fract_y
  _atom_site_fract_z
  _atom_site_thermal_displace_type
  _atom_site_B_iso_or_equiv
  _atom_site_type_symbol
  K1       1.0000 0.23516  0.25586  0.50000  Biso   1.000  K
  K2       1.0000 0.26484  0.75586  0.50000  Biso   1.000  K
  K3       1.0000 0.73516  0.24414  0.50000  Biso   1.000  K
  K4       1.0000 0.76484  0.74414  0.50000  Biso   1.000  K
  Pb1      1.0000 0.25028  0.07383  0.50000  Biso   1.000  Pb
  Pb2      1.0000 0.24972  0.57383  0.50000  Biso   1.000  Pb
  Pb3      1.0000 0.75028  0.07291  0.50000  Biso   1.000  Pb
  Pb4      1.0000 0.74972  0.57291  0.50000  Biso   1.000  Pb
  Pb5      1.0000 0.74972  0.92617  0.50000  Biso   1.000  Pb
  Pb6      1.0000 0.75028  0.42617  0.50000  Biso   1.000  Pb
  Pb7      1.0000 0.24972  0.92709  0.50000  Biso   1.000  Pb
  Pb8      1.0000 0.25028  0.42709  0.50000  Biso   1.000  Pb
  Nb1      1.0000 0.00000  0.00000  0.00000  Biso   1.000  Nb
  Nb2      1.0000 0.00000  0.50000  0.00000  Biso   1.000  Nb
  Nb3      1.0000 0.50000  0.00000  0.00000  Biso   1.000  Nb
  Nb4      1.0000 0.50000  0.50000  0.00000  Biso   1.000  Nb
  Ta1      1.0000 0.00010  0.14358  0.00000  Biso   1.000  Ta
  Ta2      1.0000 0.99844  0.64358  0.00000  Biso   1.000  Ta
  Ta3      1.0000 0.50156  0.14358  0.00000  Biso   1.000  Ta
  Ta4      1.0000 0.49990  0.64358  0.00000  Biso   1.000  Ta
  Ta5      1.0000 0.99990  0.85642  0.00000  Biso   1.000  Ta
  Ta6      1.0000 0.00156  0.35642  0.00000  Biso   1.000  Ta
  Ta7      1.0000 0.49844  0.85642  0.00000  Biso   1.000  Ta
  Ta8      1.0000 0.50010  0.35642  0.00000  Biso   1.000  Ta
  O1       1.0000 0.25000  0.99677  0.00000  Biso   1.000  O
  O2       1.0000 0.25000  0.49677  0.00000  Biso   1.000  O
  O3       1.0000 0.75000  0.00323  0.00000  Biso   1.000  O
  O4       1.0000 0.75000  0.50323  0.00000  Biso   1.000  O
  O5       1.0000 0.00000  0.00000  0.50000  Biso   1.000  O
  O6       1.0000 0.00000  0.50000  0.50000  Biso   1.000  O
  O7       1.0000 0.50000  0.00000  0.50000  Biso   1.000  O
  O8       1.0000 0.50000  0.50000  0.50000  Biso   1.000  O
  O9       1.0000 0.00310  0.06512  0.00000  Biso   1.000  O
  O10      1.0000 0.00273  0.56512  0.00000  Biso   1.000  O
  O11      1.0000 0.49727  0.06512  0.00000  Biso   1.000  O
  O12      1.0000 0.49690  0.56512  0.00000  Biso   1.000  O
  O13      1.0000 0.99690  0.93488  0.00000  Biso   1.000  O
  O14      1.0000 0.99727  0.43488  0.00000  Biso   1.000  O
  O15      1.0000 0.50273  0.93488  0.00000  Biso   1.000  O
  O16      1.0000 0.50310  0.43488  0.00000  Biso   1.000  O
  O17      1.0000 0.25029  0.13419  0.00000  Biso   1.000  O
  O18      1.0000 0.24971  0.63419  0.00000  Biso   1.000  O
  O19      1.0000 0.75029  0.12817  0.00000  Biso   1.000  O
  O20      1.0000 0.74971  0.62817  0.00000  Biso   1.000  O
  O21      1.0000 0.74971  0.86581  0.00000  Biso   1.000  O
  O22      1.0000 0.75029  0.36581  0.00000  Biso   1.000  O
  O23      1.0000 0.24971  0.87183  0.00000  Biso   1.000  O
  O24      1.0000 0.25029  0.37183  0.00000  Biso   1.000  O
  O25      1.0000 0.00008  0.86882  0.50000  Biso   1.000  O
  O26      1.0000 0.00067  0.36882  0.50000  Biso   1.000  O
  O27      1.0000 0.49933  0.86882  0.50000  Biso   1.000  O
  O28      1.0000 0.49992  0.36882  0.50000  Biso   1.000  O
  O29      1.0000 0.99992  0.13118  0.50000  Biso   1.000  O
  O30      1.0000 0.99933  0.63118  0.50000  Biso   1.000  O
  O31      1.0000 0.50067  0.13118  0.50000  Biso   1.000  O
  O32      1.0000 0.50008  0.63118  0.50000  Biso   1.000  O
  O33      1.0000 0.99728  0.20187  0.00000  Biso   1.000  O
  O34      1.0000 0.99488  0.70187  0.00000  Biso   1.000  O
  O35      1.0000 0.50512  0.20187  0.00000  Biso   1.000  O
  O36      1.0000 0.50272  0.70187  0.00000  Biso   1.000  O
  O37      1.0000 0.00272  0.79813  0.00000  Biso   1.000  O
  O38      1.0000 0.00512  0.29813  0.00000  Biso   1.000  O
  O39      1.0000 0.49488  0.79813  0.00000  Biso   1.000  O
  O40      1.0000 0.49728  0.29813  0.00000  Biso   1.000  O
