data_image0
_cell_length_a       3.9264
_cell_length_b       30.3622
_cell_length_c       3.9264
_cell_angle_alpha    90
_cell_angle_beta     90
_cell_angle_gamma    90

_symmetry_space_group_name_H-M    "P 1"
_symmetry_int_tables_number       1

loop_
  _symmetry_equiv_pos_as_xyz
  'x, y, z'

loop_
  _atom_site_label
  _atom_site_occupancy
  _atom_site_fract_x
  _atom_site_fract_y
  _atom_site_fract_z
  _atom_site_thermal_displace_type
  _atom_site_B_iso_or_equiv
  _atom_site_type_symbol
  K1       1.0000 0.50000  0.25000  0.02968  Biso   1.000  K
  K2       1.0000 0.50000  0.75000  0.97032  Biso   1.000  K
  Pb1      1.0000 0.49661  0.07337  0.99604  Biso   1.000  Pb
  Pb2      1.0000 0.50339  0.57337  0.00396  Biso   1.000  Pb
  Pb3      1.0000 0.49661  0.92663  0.99718  Biso   1.000  Pb
  Pb4      1.0000 0.50339  0.42663  0.00282  Biso   1.000  Pb
  Nb1      1.0000 0.99841  0.00000  0.49841  Biso   1.000  Nb
  Nb2      1.0000 0.00159  0.50000  0.50159  Biso   1.000  Nb
  Ta1      1.0000 0.99344  0.14358  0.49178  Biso   1.000  Ta
  Ta2      1.0000 0.00656  0.64358  0.50822  Biso   1.000  Ta
  Ta3      1.0000 0.99344  0.85642  0.49510  Biso   1.000  Ta
  Ta4      1.0000 0.00656  0.35642  0.50490  Biso   1.000  Ta
  O1       1.0000 0.99430  0.00000  0.99660  Biso   1.000  O
  O2       1.0000 0.00570  0.50000  0.00340  Biso   1.000  O
  O3       1.0000 0.49660  0.00000  0.49430  Biso   1.000  O
  O4       1.0000 0.50340  0.50000  0.50570  Biso   1.000  O
  O5       1.0000 0.99613  0.06512  0.49576  Biso   1.000  O
  O6       1.0000 0.00387  0.56512  0.50424  Biso   1.000  O
  O7       1.0000 0.99613  0.93488  0.49651  Biso   1.000  O
  O8       1.0000 0.00387  0.43488  0.50349  Biso   1.000  O
  O9       1.0000 0.99734  0.13118  0.99702  Biso   1.000  O
  O10      1.0000 0.00266  0.63118  0.00298  Biso   1.000  O
  O11      1.0000 0.99734  0.86882  0.99818  Biso   1.000  O
  O12      1.0000 0.00266  0.36882  0.00182  Biso   1.000  O
  O13      1.0000 0.49760  0.86882  0.49793  Biso   1.000  O
  O14      1.0000 0.50240  0.36882  0.50207  Biso   1.000  O
  O15      1.0000 0.49760  0.13118  0.49676  Biso   1.000  O
  O16      1.0000 0.50240  0.63118  0.50324  Biso   1.000  O
  O17      1.0000 0.99738  0.20187  0.49497  Biso   1.000  O
  O18      1.0000 0.00262  0.70187  0.50503  Biso   1.000  O
  O19      1.0000 0.99738  0.79813  0.49979  Biso   1.000  O
  O20      1.0000 0.00262  0.29813  0.50021  Biso   1.000  O
