data_image0
_cell_length_a       5.55277
_cell_length_b       30.3622
_cell_length_c       5.55277
_cell_angle_alpha    90
_cell_angle_beta     90
_cell_angle_gamma    90

_symmetry_space_group_name_H-M    "P 1"
_symmetry_int_tables_number       1

loop_
  _symmetry_equiv_pos_as_xyz
  'x, y, z'

loop_
  _atom_site_label
  _atom_site_occupancy
  _atom_site_fract_x
  _atom_site_fract_y
  _atom_site_fract_z
  _atom_site_thermal_displace_type
  _atom_site_B_iso_or_equiv
  _atom_site_type_symbol
  K1       1.0000 0.23516  0.25000  0.77613  Biso   1.000  K
  K2       1.0000 0.26484  0.75000  0.74645  Biso   1.000  K
  K3       1.0000 0.73516  0.25000  0.25355  Biso   1.000  K
  K4       1.0000 0.76484  0.75000  0.22387  Biso   1.000  K
  Pb1      1.0000 0.25028  0.07337  0.74599  Biso   1.000  Pb
  Pb2      1.0000 0.24972  0.57337  0.74655  Biso   1.000  Pb
  Pb3      1.0000 0.75028  0.07337  0.25345  Biso   1.000  Pb
  Pb4      1.0000 0.74972  0.57337  0.25401  Biso   1.000  Pb
  Pb5      1.0000 0.74972  0.92663  0.25401  Biso   1.000  Pb
  Pb6      1.0000 0.75028  0.42663  0.25345  Biso   1.000  Pb
  Pb7      1.0000 0.24972  0.92663  0.74655  Biso   1.000  Pb
  Pb8      1.0000 0.25028  0.42663  0.74599  Biso   1.000  Pb
  Nb1      1.0000 0.75000  0.00000  0.75000  Biso   1.000  Nb
  Nb2      1.0000 0.75000  0.50000  0.75000  Biso   1.000  Nb
  Nb3      1.0000 0.25000  0.00000  0.25000  Biso   1.000  Nb
  Nb4      1.0000 0.25000  0.50000  0.25000  Biso   1.000  Nb
  Ta1      1.0000 0.75083  0.14358  0.75092  Biso   1.000  Ta
  Ta2      1.0000 0.74917  0.64358  0.75258  Biso   1.000  Ta
  Ta3      1.0000 0.25083  0.14358  0.24742  Biso   1.000  Ta
  Ta4      1.0000 0.24917  0.64358  0.24908  Biso   1.000  Ta
  Ta5      1.0000 0.74917  0.85642  0.75258  Biso   1.000  Ta
  Ta6      1.0000 0.75083  0.35642  0.75092  Biso   1.000  Ta
  Ta7      1.0000 0.24917  0.85642  0.24908  Biso   1.000  Ta
  Ta8      1.0000 0.25083  0.35642  0.24742  Biso   1.000  Ta
  O1       1.0000 0.00000  0.00000  0.50000  Biso   1.000  O
  O2       1.0000 0.00000  0.50000  0.50000  Biso   1.000  O
  O3       1.0000 0.50000  0.00000  0.00000  Biso   1.000  O
  O4       1.0000 0.50000  0.50000  0.00000  Biso   1.000  O
  O5       1.0000 0.50000  0.00000  0.50000  Biso   1.000  O
  O6       1.0000 0.50000  0.50000  0.50000  Biso   1.000  O
  O7       1.0000 0.00000  0.00000  0.00000  Biso   1.000  O
  O8       1.0000 0.00000  0.50000  0.00000  Biso   1.000  O
  O9       1.0000 0.75019  0.06512  0.74808  Biso   1.000  O
  O10      1.0000 0.74981  0.56512  0.74846  Biso   1.000  O
  O11      1.0000 0.25019  0.06512  0.25154  Biso   1.000  O
  O12      1.0000 0.24981  0.56512  0.25192  Biso   1.000  O
  O13      1.0000 0.74981  0.93488  0.74846  Biso   1.000  O
  O14      1.0000 0.75019  0.43488  0.74808  Biso   1.000  O
  O15      1.0000 0.24981  0.93488  0.25192  Biso   1.000  O
  O16      1.0000 0.25019  0.43488  0.25154  Biso   1.000  O
  O17      1.0000 0.00029  0.13248  0.49971  Biso   1.000  O
  O18      1.0000 0.99971  0.63248  0.50029  Biso   1.000  O
  O19      1.0000 0.50029  0.12988  0.99971  Biso   1.000  O
  O20      1.0000 0.49971  0.62988  0.00029  Biso   1.000  O
  O21      1.0000 0.49971  0.87012  0.00029  Biso   1.000  O
  O22      1.0000 0.50029  0.37012  0.99971  Biso   1.000  O
  O23      1.0000 0.99971  0.86752  0.50029  Biso   1.000  O
  O24      1.0000 0.00029  0.36752  0.49971  Biso   1.000  O
  O25      1.0000 0.49971  0.86752  0.50029  Biso   1.000  O
  O26      1.0000 0.50029  0.36752  0.49971  Biso   1.000  O
  O27      1.0000 0.99971  0.87012  0.00029  Biso   1.000  O
  O28      1.0000 0.00029  0.37012  0.99971  Biso   1.000  O
  O29      1.0000 0.50029  0.13248  0.49971  Biso   1.000  O
  O30      1.0000 0.49971  0.63248  0.50029  Biso   1.000  O
  O31      1.0000 0.00029  0.12988  0.99971  Biso   1.000  O
  O32      1.0000 0.99971  0.62988  0.00029  Biso   1.000  O
  O33      1.0000 0.75120  0.20187  0.75349  Biso   1.000  O
  O34      1.0000 0.74880  0.70187  0.75589  Biso   1.000  O
  O35      1.0000 0.25120  0.20187  0.24411  Biso   1.000  O
  O36      1.0000 0.24880  0.70187  0.24651  Biso   1.000  O
  O37      1.0000 0.74880  0.79813  0.75589  Biso   1.000  O
  O38      1.0000 0.75120  0.29813  0.75349  Biso   1.000  O
  O39      1.0000 0.24880  0.79813  0.24651  Biso   1.000  O
  O40      1.0000 0.25120  0.29813  0.24411  Biso   1.000  O
