data_image0
_cell_length_a       5.55277
_cell_length_b       30.3622
_cell_length_c       7.8528
_cell_angle_alpha    90
_cell_angle_beta     135
_cell_angle_gamma    90

_symmetry_space_group_name_H-M    "P 1"
_symmetry_int_tables_number       1

loop_
  _symmetry_equiv_pos_as_xyz
  'x, y, z'

loop_
  _atom_site_label
  _atom_site_occupancy
  _atom_site_fract_x
  _atom_site_fract_y
  _atom_site_fract_z
  _atom_site_thermal_displace_type
  _atom_site_B_iso_or_equiv
  _atom_site_type_symbol
  K1       1.0000 0.47032  0.75000  0.98516  Biso   1.000  K
  K2       1.0000 0.52968  0.25000  0.01484  Biso   1.000  K
  K3       1.0000 0.47032  0.75000  0.48516  Biso   1.000  K
  K4       1.0000 0.52968  0.25000  0.51484  Biso   1.000  K
  Pb1      1.0000 0.49587  0.92663  0.99559  Biso   1.000  Pb
  Pb2      1.0000 0.49474  0.42663  0.99503  Biso   1.000  Pb
  Pb3      1.0000 0.50526  0.92663  0.50497  Biso   1.000  Pb
  Pb4      1.0000 0.50413  0.42663  0.50441  Biso   1.000  Pb
  Pb5      1.0000 0.49474  0.07337  0.49503  Biso   1.000  Pb
  Pb6      1.0000 0.49587  0.57337  0.49559  Biso   1.000  Pb
  Pb7      1.0000 0.50413  0.07337  0.00441  Biso   1.000  Pb
  Pb8      1.0000 0.50526  0.57337  0.00497  Biso   1.000  Pb
  Nb1      1.0000 0.00000  0.00000  0.00000  Biso   1.000  Nb
  Nb2      1.0000 0.00000  0.50000  0.00000  Biso   1.000  Nb
  Nb3      1.0000 0.00000  0.00000  0.50000  Biso   1.000  Nb
  Nb4      1.0000 0.00000  0.50000  0.50000  Biso   1.000  Nb
  Ta1      1.0000 0.00271  0.85642  0.00188  Biso   1.000  Ta
  Ta2      1.0000 0.99939  0.35642  0.00022  Biso   1.000  Ta
  Ta3      1.0000 0.00061  0.85642  0.49978  Biso   1.000  Ta
  Ta4      1.0000 0.99729  0.35642  0.49812  Biso   1.000  Ta
  Ta5      1.0000 0.99729  0.14358  0.99812  Biso   1.000  Ta
  Ta6      1.0000 0.00061  0.64358  0.99978  Biso   1.000  Ta
  Ta7      1.0000 0.99939  0.14358  0.50022  Biso   1.000  Ta
  Ta8      1.0000 0.00271  0.64358  0.50188  Biso   1.000  Ta
  O1       1.0000 0.50000  0.99670  0.25000  Biso   1.000  O
  O2       1.0000 0.50000  0.49670  0.25000  Biso   1.000  O
  O3       1.0000 0.50000  0.00330  0.75000  Biso   1.000  O
  O4       1.0000 0.50000  0.50330  0.75000  Biso   1.000  O
  O5       1.0000 0.00000  0.99670  0.25000  Biso   1.000  O
  O6       1.0000 1.00000  0.49670  0.25000  Biso   1.000  O
  O7       1.0000 1.00000  0.00330  0.75000  Biso   1.000  O
  O8       1.0000 0.00000  0.50330  0.75000  Biso   1.000  O
  O9       1.0000 0.99406  0.93488  0.99388  Biso   1.000  O
  O10      1.0000 0.99332  0.43488  0.99350  Biso   1.000  O
  O11      1.0000 0.00668  0.93488  0.50650  Biso   1.000  O
  O12      1.0000 0.00594  0.43488  0.50612  Biso   1.000  O
  O13      1.0000 0.00594  0.06512  0.00612  Biso   1.000  O
  O14      1.0000 0.00668  0.56512  0.00650  Biso   1.000  O
  O15      1.0000 0.99332  0.06512  0.49350  Biso   1.000  O
  O16      1.0000 0.99406  0.56512  0.49388  Biso   1.000  O
  O17      1.0000 0.50058  0.87067  0.25029  Biso   1.000  O
  O18      1.0000 0.49942  0.37067  0.24971  Biso   1.000  O
  O19      1.0000 0.50058  0.86697  0.75029  Biso   1.000  O
  O20      1.0000 0.49942  0.36697  0.74971  Biso   1.000  O
  O21      1.0000 0.49942  0.12933  0.74971  Biso   1.000  O
  O22      1.0000 0.50058  0.62933  0.75029  Biso   1.000  O
  O23      1.0000 0.49942  0.13303  0.24971  Biso   1.000  O
  O24      1.0000 0.50058  0.63303  0.25029  Biso   1.000  O
  O25      1.0000 0.99942  0.13303  0.24971  Biso   1.000  O
  O26      1.0000 0.00058  0.63303  0.25029  Biso   1.000  O
  O27      1.0000 0.99942  0.12933  0.74971  Biso   1.000  O
  O28      1.0000 0.00058  0.62933  0.75029  Biso   1.000  O
  O29      1.0000 0.00058  0.87067  0.25029  Biso   1.000  O
  O30      1.0000 0.99942  0.37067  0.24971  Biso   1.000  O
  O31      1.0000 0.00058  0.86697  0.75029  Biso   1.000  O
  O32      1.0000 0.99942  0.36697  0.74971  Biso   1.000  O
  O33      1.0000 0.00614  0.79813  0.00494  Biso   1.000  O
  O34      1.0000 0.00133  0.29813  0.00253  Biso   1.000  O
  O35      1.0000 0.99867  0.79813  0.49747  Biso   1.000  O
  O36      1.0000 0.99386  0.29813  0.49506  Biso   1.000  O
  O37      1.0000 0.99386  0.20187  0.99506  Biso   1.000  O
  O38      1.0000 0.99867  0.70187  0.99747  Biso   1.000  O
  O39      1.0000 0.00133  0.20187  0.50253  Biso   1.000  O
  O40      1.0000 0.00614  0.70187  0.50494  Biso   1.000  O
