data_image0
_cell_length_a       3.9264
_cell_length_b       30.3622
_cell_length_c       7.8528
_cell_angle_alpha    90
_cell_angle_beta     90
_cell_angle_gamma    90

_symmetry_space_group_name_H-M    "P 1"
_symmetry_int_tables_number       1

loop_
  _symmetry_equiv_pos_as_xyz
  'x, y, z'

loop_
  _atom_site_label
  _atom_site_occupancy
  _atom_site_fract_x
  _atom_site_fract_y
  _atom_site_fract_z
  _atom_site_thermal_displace_type
  _atom_site_B_iso_or_equiv
  _atom_site_type_symbol
  K1       1.0000 0.01484  0.24114  0.49258  Biso   1.000  K
  K2       1.0000 0.98516  0.75886  0.50742  Biso   1.000  K
  K3       1.0000 0.01484  0.25886  0.99258  Biso   1.000  K
  K4       1.0000 0.98516  0.74114  0.00742  Biso   1.000  K
  Pb1      1.0000 0.99972  0.07286  0.50014  Biso   1.000  Pb
  Pb2      1.0000 0.00028  0.57388  0.49986  Biso   1.000  Pb
  Pb3      1.0000 0.99972  0.07388  0.00014  Biso   1.000  Pb
  Pb4      1.0000 0.00028  0.57286  0.99986  Biso   1.000  Pb
  Pb5      1.0000 0.00028  0.92714  0.49986  Biso   1.000  Pb
  Pb6      1.0000 0.99972  0.42612  0.50014  Biso   1.000  Pb
  Pb7      1.0000 0.00028  0.92612  0.99986  Biso   1.000  Pb
  Pb8      1.0000 0.99972  0.42714  0.00014  Biso   1.000  Pb
  Nb1      1.0000 0.50000  0.00000  0.75027  Biso   1.000  Nb
  Nb2      1.0000 0.50000  0.50000  0.74973  Biso   1.000  Nb
  Nb3      1.0000 0.50000  0.00000  0.24973  Biso   1.000  Nb
  Nb4      1.0000 0.50000  0.50000  0.25027  Biso   1.000  Nb
  Ta1      1.0000 0.49917  0.14358  0.74963  Biso   1.000  Ta
  Ta2      1.0000 0.50083  0.64358  0.75037  Biso   1.000  Ta
  Ta3      1.0000 0.49917  0.14358  0.25120  Biso   1.000  Ta
  Ta4      1.0000 0.50083  0.64358  0.24880  Biso   1.000  Ta
  Ta5      1.0000 0.50083  0.85642  0.74880  Biso   1.000  Ta
  Ta6      1.0000 0.49917  0.35642  0.75120  Biso   1.000  Ta
  Ta7      1.0000 0.50083  0.85642  0.25037  Biso   1.000  Ta
  Ta8      1.0000 0.49917  0.35642  0.24963  Biso   1.000  Ta
  O1       1.0000 0.00000  0.00000  0.74989  Biso   1.000  O
  O2       1.0000 0.00000  0.50000  0.75011  Biso   1.000  O
  O3       1.0000 0.00000  0.00000  0.25011  Biso   1.000  O
  O4       1.0000 0.00000  0.50000  0.24989  Biso   1.000  O
  O5       1.0000 0.50000  0.00000  0.00000  Biso   1.000  O
  O6       1.0000 0.50000  0.50000  0.00000  Biso   1.000  O
  O7       1.0000 0.50000  0.00000  0.50000  Biso   1.000  O
  O8       1.0000 0.50000  0.50000  0.50000  Biso   1.000  O
  O9       1.0000 0.49981  0.06512  0.75099  Biso   1.000  O
  O10      1.0000 0.50019  0.56512  0.74901  Biso   1.000  O
  O11      1.0000 0.49981  0.06512  0.24919  Biso   1.000  O
  O12      1.0000 0.50019  0.56512  0.25081  Biso   1.000  O
  O13      1.0000 0.50019  0.93488  0.75081  Biso   1.000  O
  O14      1.0000 0.49981  0.43488  0.74919  Biso   1.000  O
  O15      1.0000 0.50019  0.93488  0.24901  Biso   1.000  O
  O16      1.0000 0.49981  0.43488  0.25099  Biso   1.000  O
  O17      1.0000 0.99971  0.13118  0.74994  Biso   1.000  O
  O18      1.0000 0.00029  0.63118  0.75006  Biso   1.000  O
  O19      1.0000 0.99971  0.13118  0.25035  Biso   1.000  O
  O20      1.0000 0.00029  0.63118  0.24965  Biso   1.000  O
  O21      1.0000 0.00029  0.86882  0.74965  Biso   1.000  O
  O22      1.0000 0.99971  0.36882  0.75035  Biso   1.000  O
  O23      1.0000 0.00029  0.86882  0.25006  Biso   1.000  O
  O24      1.0000 0.99971  0.36882  0.24994  Biso   1.000  O
  O25      1.0000 0.50029  0.86694  0.99986  Biso   1.000  O
  O26      1.0000 0.49971  0.37070  0.00014  Biso   1.000  O
  O27      1.0000 0.50029  0.87070  0.49986  Biso   1.000  O
  O28      1.0000 0.49971  0.36694  0.50014  Biso   1.000  O
  O29      1.0000 0.49971  0.13306  0.00014  Biso   1.000  O
  O30      1.0000 0.50029  0.62930  0.99986  Biso   1.000  O
  O31      1.0000 0.49971  0.12930  0.50014  Biso   1.000  O
  O32      1.0000 0.50029  0.63306  0.49986  Biso   1.000  O
  O33      1.0000 0.49880  0.20187  0.74718  Biso   1.000  O
  O34      1.0000 0.50120  0.70187  0.75282  Biso   1.000  O
  O35      1.0000 0.49880  0.20187  0.25402  Biso   1.000  O
  O36      1.0000 0.50120  0.70187  0.24598  Biso   1.000  O
  O37      1.0000 0.50120  0.79813  0.74598  Biso   1.000  O
  O38      1.0000 0.49880  0.29813  0.75402  Biso   1.000  O
  O39      1.0000 0.50120  0.79813  0.25282  Biso   1.000  O
  O40      1.0000 0.49880  0.29813  0.24718  Biso   1.000  O
