data_image0
_cell_length_a       3.9264
_cell_length_b       30.3622
_cell_length_c       3.9264
_cell_angle_alpha    90
_cell_angle_beta     90
_cell_angle_gamma    90

_symmetry_space_group_name_H-M    "P 1"
_symmetry_int_tables_number       1

loop_
  _symmetry_equiv_pos_as_xyz
  'x, y, z'

loop_
  _atom_site_label
  _atom_site_occupancy
  _atom_site_fract_x
  _atom_site_fract_y
  _atom_site_fract_z
  _atom_site_thermal_displace_type
  _atom_site_B_iso_or_equiv
  _atom_site_type_symbol
  K1       1.0000 0.98516  0.75000  0.01484  Biso   1.000  K
  K2       1.0000 0.01484  0.25000  0.98516  Biso   1.000  K
  Pb1      1.0000 0.00456  0.92663  0.99722  Biso   1.000  Pb
  Pb2      1.0000 0.99544  0.42663  0.00278  Biso   1.000  Pb
  Pb3      1.0000 0.00400  0.07337  0.99778  Biso   1.000  Pb
  Pb4      1.0000 0.99600  0.57337  0.00222  Biso   1.000  Pb
  Nb1      1.0000 0.50114  0.00000  0.49796  Biso   1.000  Nb
  Nb2      1.0000 0.49886  0.50000  0.50204  Biso   1.000  Nb
  Ta1      1.0000 0.51319  0.85642  0.49841  Biso   1.000  Ta
  Ta2      1.0000 0.48681  0.35642  0.50159  Biso   1.000  Ta
  Ta3      1.0000 0.51153  0.14358  0.50007  Biso   1.000  Ta
  Ta4      1.0000 0.48847  0.64358  0.49993  Biso   1.000  Ta
  O1       1.0000 0.51331  0.00000  0.00060  Biso   1.000  O
  O2       1.0000 0.48669  0.50000  0.99940  Biso   1.000  O
  O3       1.0000 0.00740  0.00000  0.50190  Biso   1.000  O
  O4       1.0000 0.99260  0.50000  0.49810  Biso   1.000  O
  O5       1.0000 0.50870  0.93488  0.50059  Biso   1.000  O
  O6       1.0000 0.49130  0.43488  0.49941  Biso   1.000  O
  O7       1.0000 0.50832  0.06512  0.50096  Biso   1.000  O
  O8       1.0000 0.49168  0.56512  0.49904  Biso   1.000  O
  O9       1.0000 0.50577  0.86882  0.99971  Biso   1.000  O
  O10      1.0000 0.49423  0.36882  0.00029  Biso   1.000  O
  O11      1.0000 0.50519  0.13118  0.00029  Biso   1.000  O
  O12      1.0000 0.49481  0.63118  0.99971  Biso   1.000  O
  O13      1.0000 0.00451  0.13118  0.50046  Biso   1.000  O
  O14      1.0000 0.99549  0.63118  0.49954  Biso   1.000  O
  O15      1.0000 0.00508  0.86882  0.49988  Biso   1.000  O
  O16      1.0000 0.99492  0.36882  0.50012  Biso   1.000  O
  O17      1.0000 0.50623  0.79813  0.49858  Biso   1.000  O
  O18      1.0000 0.49377  0.29813  0.50142  Biso   1.000  O
  O19      1.0000 0.50382  0.20187  0.50099  Biso   1.000  O
  O20      1.0000 0.49618  0.70187  0.49901  Biso   1.000  O
