data_image0
_cell_length_a       5.55277
_cell_length_b       30.3622
_cell_length_c       7.8528
_cell_angle_alpha    90
_cell_angle_beta     135
_cell_angle_gamma    90

_symmetry_space_group_name_H-M    "P 1"
_symmetry_int_tables_number       1

loop_
  _symmetry_equiv_pos_as_xyz
  'x, y, z'

loop_
  _atom_site_label
  _atom_site_occupancy
  _atom_site_fract_x
  _atom_site_fract_y
  _atom_site_fract_z
  _atom_site_thermal_displace_type
  _atom_site_B_iso_or_equiv
  _atom_site_type_symbol
  K1       1.0000 0.49495  0.50000  0.25000  Biso   1.000  K
  K2       1.0000 0.50505  0.00000  0.25000  Biso   1.000  K
  K3       1.0000 0.50505  0.50000  0.75000  Biso   1.000  K
  K4       1.0000 0.49495  0.00000  0.75000  Biso   1.000  K
  Pb1      1.0000 0.49993  0.67663  0.24911  Biso   1.000  Pb
  Pb2      1.0000 0.50007  0.17663  0.25089  Biso   1.000  Pb
  Pb3      1.0000 0.49151  0.67663  0.74911  Biso   1.000  Pb
  Pb4      1.0000 0.50849  0.17663  0.75089  Biso   1.000  Pb
  Pb5      1.0000 0.49993  0.82337  0.74911  Biso   1.000  Pb
  Pb6      1.0000 0.50007  0.32337  0.75089  Biso   1.000  Pb
  Pb7      1.0000 0.49151  0.82337  0.24911  Biso   1.000  Pb
  Pb8      1.0000 0.50849  0.32337  0.25089  Biso   1.000  Pb
  Nb1      1.0000 0.99886  0.75000  0.75045  Biso   1.000  Nb
  Nb2      1.0000 0.00114  0.25000  0.74955  Biso   1.000  Nb
  Nb3      1.0000 0.99886  0.75000  0.25045  Biso   1.000  Nb
  Nb4      1.0000 0.00114  0.25000  0.24955  Biso   1.000  Nb
  Ta1      1.0000 0.98667  0.60642  0.74420  Biso   1.000  Ta
  Ta2      1.0000 0.01333  0.10642  0.75580  Biso   1.000  Ta
  Ta3      1.0000 0.98861  0.60642  0.24420  Biso   1.000  Ta
  Ta4      1.0000 0.01139  0.10642  0.25580  Biso   1.000  Ta
  Ta5      1.0000 0.98861  0.89358  0.74420  Biso   1.000  Ta
  Ta6      1.0000 0.01139  0.39358  0.75580  Biso   1.000  Ta
  Ta7      1.0000 0.98667  0.89358  0.24420  Biso   1.000  Ta
  Ta8      1.0000 0.01333  0.39358  0.25580  Biso   1.000  Ta
  O1       1.0000 0.98669  0.74692  0.99304  Biso   1.000  O
  O2       1.0000 0.01331  0.25308  0.00696  Biso   1.000  O
  O3       1.0000 0.98669  0.75308  0.49304  Biso   1.000  O
  O4       1.0000 0.01331  0.24692  0.50696  Biso   1.000  O
  O5       1.0000 0.49260  0.74692  0.49535  Biso   1.000  O
  O6       1.0000 0.50740  0.25308  0.50465  Biso   1.000  O
  O7       1.0000 0.49260  0.75308  0.99535  Biso   1.000  O
  O8       1.0000 0.50740  0.24692  0.00465  Biso   1.000  O
  O9       1.0000 0.99737  0.68488  0.74536  Biso   1.000  O
  O10      1.0000 0.00263  0.18488  0.75464  Biso   1.000  O
  O11      1.0000 0.98561  0.68488  0.24536  Biso   1.000  O
  O12      1.0000 0.01439  0.18488  0.25464  Biso   1.000  O
  O13      1.0000 0.98561  0.81512  0.74536  Biso   1.000  O
  O14      1.0000 0.01439  0.31512  0.75464  Biso   1.000  O
  O15      1.0000 0.99737  0.81512  0.24536  Biso   1.000  O
  O16      1.0000 0.00263  0.31512  0.25464  Biso   1.000  O
  O17      1.0000 0.99452  0.62061  0.99726  Biso   1.000  O
  O18      1.0000 0.00548  0.11703  0.00274  Biso   1.000  O
  O19      1.0000 0.99452  0.61703  0.49726  Biso   1.000  O
  O20      1.0000 0.00548  0.12061  0.50274  Biso   1.000  O
  O21      1.0000 0.99452  0.87939  0.49726  Biso   1.000  O
  O22      1.0000 0.00548  0.38297  0.50274  Biso   1.000  O
  O23      1.0000 0.99452  0.88297  0.99726  Biso   1.000  O
  O24      1.0000 0.00548  0.37939  0.00274  Biso   1.000  O
  O25      1.0000 0.49520  0.88297  0.49752  Biso   1.000  O
  O26      1.0000 0.50480  0.37939  0.50248  Biso   1.000  O
  O27      1.0000 0.49520  0.87939  0.99752  Biso   1.000  O
  O28      1.0000 0.50480  0.38297  0.00248  Biso   1.000  O
  O29      1.0000 0.49520  0.62061  0.49752  Biso   1.000  O
  O30      1.0000 0.50480  0.11703  0.50248  Biso   1.000  O
  O31      1.0000 0.49520  0.61703  0.99752  Biso   1.000  O
  O32      1.0000 0.50480  0.12061  0.00248  Biso   1.000  O
  O33      1.0000 0.99114  0.54813  0.74760  Biso   1.000  O
  O34      1.0000 0.00886  0.04813  0.75240  Biso   1.000  O
  O35      1.0000 0.99881  0.54813  0.24760  Biso   1.000  O
  O36      1.0000 0.00119  0.04813  0.25240  Biso   1.000  O
  O37      1.0000 0.99881  0.95187  0.74760  Biso   1.000  O
  O38      1.0000 0.00119  0.45187  0.75240  Biso   1.000  O
  O39      1.0000 0.99114  0.95187  0.24760  Biso   1.000  O
  O40      1.0000 0.00886  0.45187  0.25240  Biso   1.000  O
