data_image0
_cell_length_a       3.9264
_cell_length_b       30.3622
_cell_length_c       7.8528
_cell_angle_alpha    90
_cell_angle_beta     90
_cell_angle_gamma    90

_symmetry_space_group_name_H-M    "P 1"
_symmetry_int_tables_number       1

loop_
  _symmetry_equiv_pos_as_xyz
  'x, y, z'

loop_
  _atom_site_label
  _atom_site_occupancy
  _atom_site_fract_x
  _atom_site_fract_y
  _atom_site_fract_z
  _atom_site_thermal_displace_type
  _atom_site_B_iso_or_equiv
  _atom_site_type_symbol
  K1       1.0000 0.00000  0.49414  0.25000  Biso   1.000  K
  K2       1.0000 0.00000  0.99414  0.25000  Biso   1.000  K
  K3       1.0000 0.00000  0.50586  0.75000  Biso   1.000  K
  K4       1.0000 0.00000  0.00586  0.75000  Biso   1.000  K
  Pb1      1.0000 0.99661  0.67617  0.24831  Biso   1.000  Pb
  Pb2      1.0000 0.00339  0.17617  0.25169  Biso   1.000  Pb
  Pb3      1.0000 0.99661  0.67709  0.74831  Biso   1.000  Pb
  Pb4      1.0000 0.00339  0.17709  0.75169  Biso   1.000  Pb
  Pb5      1.0000 0.99661  0.82291  0.24831  Biso   1.000  Pb
  Pb6      1.0000 0.00339  0.32291  0.25169  Biso   1.000  Pb
  Pb7      1.0000 0.99661  0.82383  0.74831  Biso   1.000  Pb
  Pb8      1.0000 0.00339  0.32383  0.75169  Biso   1.000  Pb
  Nb1      1.0000 0.49841  0.75000  0.99920  Biso   1.000  Nb
  Nb2      1.0000 0.50159  0.25000  0.00080  Biso   1.000  Nb
  Nb3      1.0000 0.49841  0.75000  0.49920  Biso   1.000  Nb
  Nb4      1.0000 0.50159  0.25000  0.50080  Biso   1.000  Nb
  Ta1      1.0000 0.49344  0.60642  0.99599  Biso   1.000  Ta
  Ta2      1.0000 0.50656  0.10642  0.00255  Biso   1.000  Ta
  Ta3      1.0000 0.49344  0.60642  0.49745  Biso   1.000  Ta
  Ta4      1.0000 0.50656  0.10642  0.50401  Biso   1.000  Ta
  Ta5      1.0000 0.49344  0.89358  0.99745  Biso   1.000  Ta
  Ta6      1.0000 0.50656  0.39358  0.00401  Biso   1.000  Ta
  Ta7      1.0000 0.49344  0.89358  0.49599  Biso   1.000  Ta
  Ta8      1.0000 0.50656  0.39358  0.50255  Biso   1.000  Ta
  O1       1.0000 0.99660  0.75000  0.99715  Biso   1.000  O
  O2       1.0000 0.00340  0.25000  0.00285  Biso   1.000  O
  O3       1.0000 0.99660  0.75000  0.49715  Biso   1.000  O
  O4       1.0000 0.00340  0.25000  0.50285  Biso   1.000  O
  O5       1.0000 0.49430  0.74678  0.74830  Biso   1.000  O
  O6       1.0000 0.50570  0.24678  0.75170  Biso   1.000  O
  O7       1.0000 0.49430  0.75322  0.24830  Biso   1.000  O
  O8       1.0000 0.50570  0.25322  0.25170  Biso   1.000  O
  O9       1.0000 0.49613  0.68488  0.00098  Biso   1.000  O
  O10      1.0000 0.50387  0.18488  0.00485  Biso   1.000  O
  O11      1.0000 0.49613  0.68488  0.49515  Biso   1.000  O
  O12      1.0000 0.50387  0.18488  0.49902  Biso   1.000  O
  O13      1.0000 0.49613  0.81512  0.99515  Biso   1.000  O
  O14      1.0000 0.50387  0.31512  0.99902  Biso   1.000  O
  O15      1.0000 0.49613  0.81512  0.50098  Biso   1.000  O
  O16      1.0000 0.50387  0.31512  0.50485  Biso   1.000  O
  O17      1.0000 0.99760  0.61882  0.99830  Biso   1.000  O
  O18      1.0000 0.00240  0.11882  0.00095  Biso   1.000  O
  O19      1.0000 0.99760  0.61882  0.49905  Biso   1.000  O
  O20      1.0000 0.00240  0.11882  0.50170  Biso   1.000  O
  O21      1.0000 0.99760  0.88118  0.99905  Biso   1.000  O
  O22      1.0000 0.00240  0.38118  0.00170  Biso   1.000  O
  O23      1.0000 0.99760  0.88118  0.49830  Biso   1.000  O
  O24      1.0000 0.00240  0.38118  0.50095  Biso   1.000  O
  O25      1.0000 0.49734  0.88419  0.74880  Biso   1.000  O
  O26      1.0000 0.50266  0.38419  0.75120  Biso   1.000  O
  O27      1.0000 0.49734  0.87817  0.24880  Biso   1.000  O
  O28      1.0000 0.50266  0.37817  0.25120  Biso   1.000  O
  O29      1.0000 0.49734  0.62183  0.74880  Biso   1.000  O
  O30      1.0000 0.50266  0.12183  0.75120  Biso   1.000  O
  O31      1.0000 0.49734  0.61581  0.24880  Biso   1.000  O
  O32      1.0000 0.50266  0.11581  0.25120  Biso   1.000  O
  O33      1.0000 0.49738  0.54813  0.99477  Biso   1.000  O
  O34      1.0000 0.50262  0.04813  0.99739  Biso   1.000  O
  O35      1.0000 0.49738  0.54813  0.50261  Biso   1.000  O
  O36      1.0000 0.50262  0.04813  0.50523  Biso   1.000  O
  O37      1.0000 0.49738  0.95187  0.00261  Biso   1.000  O
  O38      1.0000 0.50262  0.45187  0.00523  Biso   1.000  O
  O39      1.0000 0.49738  0.95187  0.49477  Biso   1.000  O
  O40      1.0000 0.50262  0.45187  0.49739  Biso   1.000  O
