data_image0
_cell_length_a       5.55277
_cell_length_b       30.3622
_cell_length_c       5.55277
_cell_angle_alpha    90
_cell_angle_beta     90
_cell_angle_gamma    90

_symmetry_space_group_name_H-M    "P 1"
_symmetry_int_tables_number       1

loop_
  _symmetry_equiv_pos_as_xyz
  'x, y, z'

loop_
  _atom_site_label
  _atom_site_occupancy
  _atom_site_fract_x
  _atom_site_fract_y
  _atom_site_fract_z
  _atom_site_thermal_displace_type
  _atom_site_B_iso_or_equiv
  _atom_site_type_symbol
  K1       1.0000 0.00000  0.00000  0.00000  Biso   1.000  K
  K2       1.0000 0.00000  0.50000  0.00000  Biso   1.000  K
  K3       1.0000 0.50000  0.00000  0.50000  Biso   1.000  K
  K4       1.0000 0.50000  0.50000  0.50000  Biso   1.000  K
  Pb1      1.0000 0.99661  0.82337  0.00089  Biso   1.000  Pb
  Pb2      1.0000 0.00339  0.32337  0.99911  Biso   1.000  Pb
  Pb3      1.0000 0.49661  0.82337  0.50089  Biso   1.000  Pb
  Pb4      1.0000 0.50339  0.32337  0.49911  Biso   1.000  Pb
  Pb5      1.0000 0.49661  0.67663  0.50089  Biso   1.000  Pb
  Pb6      1.0000 0.50339  0.17663  0.49911  Biso   1.000  Pb
  Pb7      1.0000 0.99661  0.67663  0.00089  Biso   1.000  Pb
  Pb8      1.0000 0.00339  0.17663  0.99911  Biso   1.000  Pb
  Nb1      1.0000 0.99841  0.75000  0.49955  Biso   1.000  Nb
  Nb2      1.0000 0.00159  0.25000  0.50045  Biso   1.000  Nb
  Nb3      1.0000 0.49841  0.75000  0.99955  Biso   1.000  Nb
  Nb4      1.0000 0.50159  0.25000  0.00045  Biso   1.000  Nb
  Ta1      1.0000 0.99344  0.89358  0.50580  Biso   1.000  Ta
  Ta2      1.0000 0.00656  0.39358  0.49420  Biso   1.000  Ta
  Ta3      1.0000 0.49344  0.89358  0.00580  Biso   1.000  Ta
  Ta4      1.0000 0.50656  0.39358  0.99420  Biso   1.000  Ta
  Ta5      1.0000 0.99344  0.60642  0.50580  Biso   1.000  Ta
  Ta6      1.0000 0.00656  0.10642  0.49420  Biso   1.000  Ta
  Ta7      1.0000 0.49344  0.60642  0.00580  Biso   1.000  Ta
  Ta8      1.0000 0.50656  0.10642  0.99420  Biso   1.000  Ta
  O1       1.0000 0.75115  0.75000  0.24946  Biso   1.000  O
  O2       1.0000 0.76385  0.25000  0.23554  Biso   1.000  O
  O3       1.0000 0.23615  0.75000  0.76446  Biso   1.000  O
  O4       1.0000 0.24885  0.25000  0.75054  Biso   1.000  O
  O5       1.0000 0.73975  0.75000  0.74715  Biso   1.000  O
  O6       1.0000 0.74525  0.25000  0.73785  Biso   1.000  O
  O7       1.0000 0.25475  0.75000  0.26215  Biso   1.000  O
  O8       1.0000 0.26025  0.25000  0.25285  Biso   1.000  O
  O9       1.0000 0.99613  0.81512  0.50464  Biso   1.000  O
  O10      1.0000 0.00387  0.31512  0.49536  Biso   1.000  O
  O11      1.0000 0.49613  0.81512  0.00464  Biso   1.000  O
  O12      1.0000 0.50387  0.31512  0.99536  Biso   1.000  O
  O13      1.0000 0.99613  0.68488  0.50464  Biso   1.000  O
  O14      1.0000 0.00387  0.18488  0.49536  Biso   1.000  O
  O15      1.0000 0.49613  0.68488  0.00464  Biso   1.000  O
  O16      1.0000 0.50387  0.18488  0.99536  Biso   1.000  O
  O17      1.0000 0.74715  0.88118  0.25284  Biso   1.000  O
  O18      1.0000 0.75264  0.38118  0.24736  Biso   1.000  O
  O19      1.0000 0.24736  0.88118  0.75264  Biso   1.000  O
  O20      1.0000 0.25285  0.38118  0.74716  Biso   1.000  O
  O21      1.0000 0.24736  0.61882  0.75264  Biso   1.000  O
  O22      1.0000 0.25285  0.11882  0.74716  Biso   1.000  O
  O23      1.0000 0.74715  0.61882  0.25284  Biso   1.000  O
  O24      1.0000 0.75264  0.11882  0.24736  Biso   1.000  O
  O25      1.0000 0.74779  0.61882  0.75259  Biso   1.000  O
  O26      1.0000 0.75242  0.11882  0.74762  Biso   1.000  O
  O27      1.0000 0.24758  0.61882  0.25238  Biso   1.000  O
  O28      1.0000 0.25221  0.11882  0.24741  Biso   1.000  O
  O29      1.0000 0.74779  0.88118  0.75259  Biso   1.000  O
  O30      1.0000 0.75242  0.38118  0.74762  Biso   1.000  O
  O31      1.0000 0.24758  0.88118  0.25238  Biso   1.000  O
  O32      1.0000 0.25221  0.38118  0.24741  Biso   1.000  O
  O33      1.0000 0.99738  0.95187  0.50240  Biso   1.000  O
  O34      1.0000 0.00262  0.45187  0.49760  Biso   1.000  O
  O35      1.0000 0.49738  0.95187  0.00240  Biso   1.000  O
  O36      1.0000 0.50262  0.45187  0.99760  Biso   1.000  O
  O37      1.0000 0.99738  0.54813  0.50240  Biso   1.000  O
  O38      1.0000 0.00262  0.04813  0.49760  Biso   1.000  O
  O39      1.0000 0.49738  0.54813  0.00240  Biso   1.000  O
  O40      1.0000 0.50262  0.04813  0.99760  Biso   1.000  O
