data_image0
_cell_length_a       3.9264
_cell_length_b       30.3622
_cell_length_c       7.8528
_cell_angle_alpha    90
_cell_angle_beta     90
_cell_angle_gamma    90

_symmetry_space_group_name_H-M    "P 1"
_symmetry_int_tables_number       1

loop_
  _symmetry_equiv_pos_as_xyz
  'x, y, z'

loop_
  _atom_site_label
  _atom_site_occupancy
  _atom_site_fract_x
  _atom_site_fract_y
  _atom_site_fract_z
  _atom_site_thermal_displace_type
  _atom_site_B_iso_or_equiv
  _atom_site_type_symbol
  K1       1.0000 0.50000  0.00586  0.25000  Biso   1.000  K
  K2       1.0000 0.50000  0.50586  0.25000  Biso   1.000  K
  K3       1.0000 0.50000  0.99414  0.75000  Biso   1.000  K
  K4       1.0000 0.50000  0.49414  0.75000  Biso   1.000  K
  Pb1      1.0000 0.49572  0.82383  0.24875  Biso   1.000  Pb
  Pb2      1.0000 0.50428  0.32383  0.25125  Biso   1.000  Pb
  Pb3      1.0000 0.49572  0.82291  0.74875  Biso   1.000  Pb
  Pb4      1.0000 0.50428  0.32291  0.75125  Biso   1.000  Pb
  Pb5      1.0000 0.49572  0.67617  0.74875  Biso   1.000  Pb
  Pb6      1.0000 0.50428  0.17617  0.75125  Biso   1.000  Pb
  Pb7      1.0000 0.49572  0.67709  0.24875  Biso   1.000  Pb
  Pb8      1.0000 0.50428  0.17709  0.25125  Biso   1.000  Pb
  Nb1      1.0000 0.99886  0.75000  0.49898  Biso   1.000  Nb
  Nb2      1.0000 0.00114  0.25000  0.50102  Biso   1.000  Nb
  Nb3      1.0000 0.99886  0.75000  0.99898  Biso   1.000  Nb
  Nb4      1.0000 0.00114  0.25000  0.00102  Biso   1.000  Nb
  Ta1      1.0000 0.98764  0.89358  0.50035  Biso   1.000  Ta
  Ta2      1.0000 0.01236  0.39358  0.50111  Biso   1.000  Ta
  Ta3      1.0000 0.98764  0.89358  0.99889  Biso   1.000  Ta
  Ta4      1.0000 0.01236  0.39358  0.99965  Biso   1.000  Ta
  Ta5      1.0000 0.98764  0.60642  0.49889  Biso   1.000  Ta
  Ta6      1.0000 0.01236  0.10642  0.49965  Biso   1.000  Ta
  Ta7      1.0000 0.98764  0.60642  0.00035  Biso   1.000  Ta
  Ta8      1.0000 0.01236  0.10642  0.00111  Biso   1.000  Ta
  O1       1.0000 0.98669  0.74677  0.25030  Biso   1.000  O
  O2       1.0000 0.01331  0.24677  0.24970  Biso   1.000  O
  O3       1.0000 0.98669  0.75323  0.75030  Biso   1.000  O
  O4       1.0000 0.01331  0.25323  0.74970  Biso   1.000  O
  O5       1.0000 0.49260  0.75000  0.50095  Biso   1.000  O
  O6       1.0000 0.50740  0.25000  0.49905  Biso   1.000  O
  O7       1.0000 0.49260  0.75000  0.00095  Biso   1.000  O
  O8       1.0000 0.50740  0.25000  0.99905  Biso   1.000  O
  O9       1.0000 0.99149  0.81512  0.49747  Biso   1.000  O
  O10      1.0000 0.00851  0.31512  0.49670  Biso   1.000  O
  O11      1.0000 0.99149  0.81512  0.00330  Biso   1.000  O
  O12      1.0000 0.00851  0.31512  0.00253  Biso   1.000  O
  O13      1.0000 0.99149  0.68488  0.50330  Biso   1.000  O
  O14      1.0000 0.00851  0.18488  0.50253  Biso   1.000  O
  O15      1.0000 0.99149  0.68488  0.99747  Biso   1.000  O
  O16      1.0000 0.00851  0.18488  0.99670  Biso   1.000  O
  O17      1.0000 0.99452  0.88419  0.25000  Biso   1.000  O
  O18      1.0000 0.00548  0.38419  0.25000  Biso   1.000  O
  O19      1.0000 0.99452  0.87817  0.75000  Biso   1.000  O
  O20      1.0000 0.00548  0.37817  0.75000  Biso   1.000  O
  O21      1.0000 0.99452  0.61581  0.75000  Biso   1.000  O
  O22      1.0000 0.00548  0.11581  0.75000  Biso   1.000  O
  O23      1.0000 0.99452  0.62183  0.25000  Biso   1.000  O
  O24      1.0000 0.00548  0.12183  0.25000  Biso   1.000  O
  O25      1.0000 0.49520  0.61882  0.49971  Biso   1.000  O
  O26      1.0000 0.50480  0.11882  0.49954  Biso   1.000  O
  O27      1.0000 0.49520  0.61882  0.00046  Biso   1.000  O
  O28      1.0000 0.50480  0.11882  0.00029  Biso   1.000  O
  O29      1.0000 0.49520  0.88118  0.50046  Biso   1.000  O
  O30      1.0000 0.50480  0.38118  0.50029  Biso   1.000  O
  O31      1.0000 0.49520  0.88118  0.99971  Biso   1.000  O
  O32      1.0000 0.50480  0.38118  0.99954  Biso   1.000  O
  O33      1.0000 0.99498  0.95187  0.50381  Biso   1.000  O
  O34      1.0000 0.00502  0.45187  0.50403  Biso   1.000  O
  O35      1.0000 0.99498  0.95187  0.99597  Biso   1.000  O
  O36      1.0000 0.00502  0.45187  0.99619  Biso   1.000  O
  O37      1.0000 0.99498  0.54813  0.49597  Biso   1.000  O
  O38      1.0000 0.00502  0.04813  0.49619  Biso   1.000  O
  O39      1.0000 0.99498  0.54813  0.00381  Biso   1.000  O
  O40      1.0000 0.00502  0.04813  0.00403  Biso   1.000  O
