data_image0
_cell_length_a       5.55277
_cell_length_b       30.3622
_cell_length_c       7.8528
_cell_angle_alpha    90
_cell_angle_beta     135
_cell_angle_gamma    90

_symmetry_space_group_name_H-M    "P 1"
_symmetry_int_tables_number       1

loop_
  _symmetry_equiv_pos_as_xyz
  'x, y, z'

loop_
  _atom_site_label
  _atom_site_occupancy
  _atom_site_fract_x
  _atom_site_fract_y
  _atom_site_fract_z
  _atom_site_thermal_displace_type
  _atom_site_B_iso_or_equiv
  _atom_site_type_symbol
  K1       1.0000 0.50000  0.50000  0.50000  Biso   1.000  K
  K2       1.0000 0.50000  0.00000  0.50000  Biso   1.000  K
  K3       1.0000 0.50000  0.50000  0.00000  Biso   1.000  K
  K4       1.0000 0.50000  0.00000  0.00000  Biso   1.000  K
  Pb1      1.0000 0.50041  0.67663  0.49911  Biso   1.000  Pb
  Pb2      1.0000 0.50897  0.17663  0.50089  Biso   1.000  Pb
  Pb3      1.0000 0.49103  0.67663  0.99911  Biso   1.000  Pb
  Pb4      1.0000 0.49959  0.17663  0.00089  Biso   1.000  Pb
  Pb5      1.0000 0.50041  0.82337  0.99911  Biso   1.000  Pb
  Pb6      1.0000 0.50897  0.32337  0.00089  Biso   1.000  Pb
  Pb7      1.0000 0.49103  0.82337  0.49911  Biso   1.000  Pb
  Pb8      1.0000 0.49959  0.32337  0.50089  Biso   1.000  Pb
  Nb1      1.0000 0.99886  0.75000  0.00045  Biso   1.000  Nb
  Nb2      1.0000 0.00114  0.25000  0.99955  Biso   1.000  Nb
  Nb3      1.0000 0.99886  0.75000  0.50045  Biso   1.000  Nb
  Nb4      1.0000 0.00114  0.25000  0.49955  Biso   1.000  Nb
  Ta1      1.0000 0.98658  0.60642  0.99420  Biso   1.000  Ta
  Ta2      1.0000 0.01131  0.10642  0.00580  Biso   1.000  Ta
  Ta3      1.0000 0.98869  0.60642  0.49420  Biso   1.000  Ta
  Ta4      1.0000 0.01342  0.10642  0.50580  Biso   1.000  Ta
  Ta5      1.0000 0.98869  0.89358  0.99420  Biso   1.000  Ta
  Ta6      1.0000 0.01342  0.39358  0.00580  Biso   1.000  Ta
  Ta7      1.0000 0.98658  0.89358  0.49420  Biso   1.000  Ta
  Ta8      1.0000 0.01131  0.39358  0.50580  Biso   1.000  Ta
  O1       1.0000 0.98669  0.74670  0.24304  Biso   1.000  O
  O2       1.0000 0.01331  0.24670  0.25696  Biso   1.000  O
  O3       1.0000 0.98669  0.75330  0.74304  Biso   1.000  O
  O4       1.0000 0.01331  0.25330  0.75696  Biso   1.000  O
  O5       1.0000 0.49260  0.74670  0.74535  Biso   1.000  O
  O6       1.0000 0.50740  0.24670  0.75465  Biso   1.000  O
  O7       1.0000 0.49260  0.75330  0.24535  Biso   1.000  O
  O8       1.0000 0.50740  0.25330  0.25465  Biso   1.000  O
  O9       1.0000 0.99780  0.68488  0.99536  Biso   1.000  O
  O10      1.0000 0.01482  0.18488  0.00464  Biso   1.000  O
  O11      1.0000 0.98518  0.68488  0.49536  Biso   1.000  O
  O12      1.0000 0.00220  0.18488  0.50464  Biso   1.000  O
  O13      1.0000 0.98518  0.81512  0.99536  Biso   1.000  O
  O14      1.0000 0.00220  0.31512  0.00464  Biso   1.000  O
  O15      1.0000 0.99780  0.81512  0.49536  Biso   1.000  O
  O16      1.0000 0.01482  0.31512  0.50464  Biso   1.000  O
  O17      1.0000 0.99452  0.62067  0.24726  Biso   1.000  O
  O18      1.0000 0.00548  0.12067  0.25274  Biso   1.000  O
  O19      1.0000 0.99452  0.61697  0.74726  Biso   1.000  O
  O20      1.0000 0.00548  0.11697  0.75274  Biso   1.000  O
  O21      1.0000 0.99452  0.87933  0.74726  Biso   1.000  O
  O22      1.0000 0.00548  0.37933  0.75274  Biso   1.000  O
  O23      1.0000 0.99452  0.88303  0.24726  Biso   1.000  O
  O24      1.0000 0.00548  0.38303  0.25274  Biso   1.000  O
  O25      1.0000 0.49520  0.88303  0.74752  Biso   1.000  O
  O26      1.0000 0.50480  0.38303  0.75248  Biso   1.000  O
  O27      1.0000 0.49520  0.87933  0.24752  Biso   1.000  O
  O28      1.0000 0.50480  0.37933  0.25248  Biso   1.000  O
  O29      1.0000 0.49520  0.62067  0.74752  Biso   1.000  O
  O30      1.0000 0.50480  0.12067  0.75248  Biso   1.000  O
  O31      1.0000 0.49520  0.61697  0.24752  Biso   1.000  O
  O32      1.0000 0.50480  0.11697  0.25248  Biso   1.000  O
  O33      1.0000 0.99124  0.54813  0.99760  Biso   1.000  O
  O34      1.0000 0.00129  0.04813  0.00240  Biso   1.000  O
  O35      1.0000 0.99871  0.54813  0.49760  Biso   1.000  O
  O36      1.0000 0.00876  0.04813  0.50240  Biso   1.000  O
  O37      1.0000 0.99871  0.95187  0.99760  Biso   1.000  O
  O38      1.0000 0.00876  0.45187  0.00240  Biso   1.000  O
  O39      1.0000 0.99124  0.95187  0.49760  Biso   1.000  O
  O40      1.0000 0.00129  0.45187  0.50240  Biso   1.000  O
