data_image0
_cell_length_a       5.55277
_cell_length_b       30.3622
_cell_length_c       5.55277
_cell_angle_alpha    90
_cell_angle_beta     90
_cell_angle_gamma    90

_symmetry_space_group_name_H-M    "P 1"
_symmetry_int_tables_number       1

loop_
  _symmetry_equiv_pos_as_xyz
  'x, y, z'

loop_
  _atom_site_label
  _atom_site_occupancy
  _atom_site_fract_x
  _atom_site_fract_y
  _atom_site_fract_z
  _atom_site_thermal_displace_type
  _atom_site_B_iso_or_equiv
  _atom_site_type_symbol
  K1       1.0000 0.75000  0.00000  0.25000  Biso   1.000  K
  K2       1.0000 0.75000  0.50000  0.25000  Biso   1.000  K
  K3       1.0000 0.25000  0.00000  0.75000  Biso   1.000  K
  K4       1.0000 0.25000  0.50000  0.75000  Biso   1.000  K
  Pb1      1.0000 0.74661  0.82337  0.25089  Biso   1.000  Pb
  Pb2      1.0000 0.75339  0.32337  0.24911  Biso   1.000  Pb
  Pb3      1.0000 0.24661  0.82337  0.75089  Biso   1.000  Pb
  Pb4      1.0000 0.25339  0.32337  0.74911  Biso   1.000  Pb
  Pb5      1.0000 0.24661  0.67663  0.75089  Biso   1.000  Pb
  Pb6      1.0000 0.25339  0.17663  0.74911  Biso   1.000  Pb
  Pb7      1.0000 0.74661  0.67663  0.25089  Biso   1.000  Pb
  Pb8      1.0000 0.75339  0.17663  0.24911  Biso   1.000  Pb
  Nb1      1.0000 0.74841  0.75000  0.74955  Biso   1.000  Nb
  Nb2      1.0000 0.75159  0.25000  0.75045  Biso   1.000  Nb
  Nb3      1.0000 0.24841  0.75000  0.24955  Biso   1.000  Nb
  Nb4      1.0000 0.25159  0.25000  0.25045  Biso   1.000  Nb
  Ta1      1.0000 0.74344  0.89358  0.75580  Biso   1.000  Ta
  Ta2      1.0000 0.75656  0.39358  0.74420  Biso   1.000  Ta
  Ta3      1.0000 0.24344  0.89358  0.25580  Biso   1.000  Ta
  Ta4      1.0000 0.25656  0.39358  0.24420  Biso   1.000  Ta
  Ta5      1.0000 0.74344  0.60642  0.75580  Biso   1.000  Ta
  Ta6      1.0000 0.75656  0.10642  0.74420  Biso   1.000  Ta
  Ta7      1.0000 0.24344  0.60642  0.25580  Biso   1.000  Ta
  Ta8      1.0000 0.25656  0.10642  0.24420  Biso   1.000  Ta
  O1       1.0000 0.50115  0.75000  0.49946  Biso   1.000  O
  O2       1.0000 0.49885  0.25000  0.50054  Biso   1.000  O
  O3       1.0000 0.98615  0.75000  0.01446  Biso   1.000  O
  O4       1.0000 0.01385  0.25000  0.98554  Biso   1.000  O
  O5       1.0000 0.48975  0.75000  0.99715  Biso   1.000  O
  O6       1.0000 0.51025  0.25000  0.00285  Biso   1.000  O
  O7       1.0000 0.00475  0.75000  0.51215  Biso   1.000  O
  O8       1.0000 0.99525  0.25000  0.48785  Biso   1.000  O
  O9       1.0000 0.74613  0.81512  0.75464  Biso   1.000  O
  O10      1.0000 0.75387  0.31512  0.74536  Biso   1.000  O
  O11      1.0000 0.24613  0.81512  0.25464  Biso   1.000  O
  O12      1.0000 0.25387  0.31512  0.24536  Biso   1.000  O
  O13      1.0000 0.74613  0.68488  0.75464  Biso   1.000  O
  O14      1.0000 0.75387  0.18488  0.74536  Biso   1.000  O
  O15      1.0000 0.24613  0.68488  0.25464  Biso   1.000  O
  O16      1.0000 0.25387  0.18488  0.24536  Biso   1.000  O
  O17      1.0000 0.49715  0.88118  0.50284  Biso   1.000  O
  O18      1.0000 0.50285  0.38118  0.49716  Biso   1.000  O
  O19      1.0000 0.99736  0.88118  0.00264  Biso   1.000  O
  O20      1.0000 0.00264  0.38118  0.99736  Biso   1.000  O
  O21      1.0000 0.99736  0.61882  0.00264  Biso   1.000  O
  O22      1.0000 0.00264  0.11882  0.99736  Biso   1.000  O
  O23      1.0000 0.49715  0.61882  0.50284  Biso   1.000  O
  O24      1.0000 0.50285  0.11882  0.49716  Biso   1.000  O
  O25      1.0000 0.49779  0.61882  0.00259  Biso   1.000  O
  O26      1.0000 0.50221  0.11882  0.99741  Biso   1.000  O
  O27      1.0000 0.99758  0.61882  0.50238  Biso   1.000  O
  O28      1.0000 0.00242  0.11882  0.49762  Biso   1.000  O
  O29      1.0000 0.49779  0.88118  0.00259  Biso   1.000  O
  O30      1.0000 0.50221  0.38118  0.99741  Biso   1.000  O
  O31      1.0000 0.99758  0.88118  0.50238  Biso   1.000  O
  O32      1.0000 0.00242  0.38118  0.49762  Biso   1.000  O
  O33      1.0000 0.74738  0.95187  0.75240  Biso   1.000  O
  O34      1.0000 0.75262  0.45187  0.74760  Biso   1.000  O
  O35      1.0000 0.24738  0.95187  0.25240  Biso   1.000  O
  O36      1.0000 0.25262  0.45187  0.24760  Biso   1.000  O
  O37      1.0000 0.74738  0.54813  0.75240  Biso   1.000  O
  O38      1.0000 0.75262  0.04813  0.74760  Biso   1.000  O
  O39      1.0000 0.24738  0.54813  0.25240  Biso   1.000  O
  O40      1.0000 0.25262  0.04813  0.24760  Biso   1.000  O
