data_image0
_chemical_formula_structural       Pb64Ti64O192
_chemical_formula_sum              "Pb64 Ti64 O192"
_cell_length_a       7.4
_cell_length_b       7.4
_cell_length_c       59.2
_cell_angle_alpha    90
_cell_angle_beta     90
_cell_angle_gamma    90

_symmetry_space_group_name_H-M    "P 1"
_symmetry_int_tables_number       1

loop_
  _symmetry_equiv_pos_as_xyz
  'x, y, z'

loop_
  _atom_site_type_symbol
  _atom_site_label
  _atom_site_symmetry_multiplicity
  _atom_site_fract_x
  _atom_site_fract_y
  _atom_site_fract_z
  _atom_site_occupancy
  Pb  Pb1       1.0  0.00015  0.00015  0.00000  1.0000
  Pb  Pb2       1.0  0.50015  0.00015  0.00000  1.0000
  Pb  Pb3       1.0  0.00015  0.50015  0.00000  1.0000
  Pb  Pb4       1.0  0.50015  0.50015  0.00000  1.0000
  Pb  Pb5       1.0  0.98457  0.98457  0.06250  1.0000
  Pb  Pb6       1.0  0.48457  0.98457  0.06250  1.0000
  Pb  Pb7       1.0  0.98457  0.48457  0.06250  1.0000
  Pb  Pb8       1.0  0.48457  0.48457  0.06250  1.0000
  Pb  Pb9       1.0  0.03056  0.03056  0.12500  1.0000
  Pb  Pb10      1.0  0.53056  0.03056  0.12500  1.0000
  Pb  Pb11      1.0  0.03056  0.53056  0.12500  1.0000
  Pb  Pb12      1.0  0.53056  0.53056  0.12500  1.0000
  Pb  Pb13      1.0  0.96944  0.96944  0.18750  1.0000
  Pb  Pb14      1.0  0.46944  0.96944  0.18750  1.0000
  Pb  Pb15      1.0  0.96944  0.46944  0.18750  1.0000
  Pb  Pb16      1.0  0.46944  0.46944  0.18750  1.0000
  Pb  Pb17      1.0  0.03056  0.03056  0.25000  1.0000
  Pb  Pb18      1.0  0.53056  0.03056  0.25000  1.0000
  Pb  Pb19      1.0  0.03056  0.53056  0.25000  1.0000
  Pb  Pb20      1.0  0.53056  0.53056  0.25000  1.0000
  Pb  Pb21      1.0  0.96944  0.96944  0.31250  1.0000
  Pb  Pb22      1.0  0.46944  0.96944  0.31250  1.0000
  Pb  Pb23      1.0  0.96944  0.46944  0.31250  1.0000
  Pb  Pb24      1.0  0.46944  0.46944  0.31250  1.0000
  Pb  Pb25      1.0  0.03047  0.03047  0.37500  1.0000
  Pb  Pb26      1.0  0.53047  0.03047  0.37500  1.0000
  Pb  Pb27      1.0  0.03047  0.53047  0.37500  1.0000
  Pb  Pb28      1.0  0.53047  0.53047  0.37500  1.0000
  Pb  Pb29      1.0  0.98480  0.98480  0.43750  1.0000
  Pb  Pb30      1.0  0.48480  0.98480  0.43750  1.0000
  Pb  Pb31      1.0  0.98480  0.48480  0.43750  1.0000
  Pb  Pb32      1.0  0.48480  0.48480  0.43750  1.0000
  Pb  Pb33      1.0  0.99992  0.99992  0.50000  1.0000
  Pb  Pb34      1.0  0.49992  0.99992  0.50000  1.0000
  Pb  Pb35      1.0  0.99992  0.49992  0.50000  1.0000
  Pb  Pb36      1.0  0.49992  0.49992  0.50000  1.0000
  Pb  Pb37      1.0  0.01535  0.01535  0.56250  1.0000
  Pb  Pb38      1.0  0.51535  0.01535  0.56250  1.0000
  Pb  Pb39      1.0  0.01535  0.51535  0.56250  1.0000
  Pb  Pb40      1.0  0.51535  0.51535  0.56250  1.0000
  Pb  Pb41      1.0  0.96944  0.96944  0.62500  1.0000
  Pb  Pb42      1.0  0.46944  0.96944  0.62500  1.0000
  Pb  Pb43      1.0  0.96944  0.46944  0.62500  1.0000
  Pb  Pb44      1.0  0.46944  0.46944  0.62500  1.0000
  Pb  Pb45      1.0  0.03056  0.03056  0.68750  1.0000
  Pb  Pb46      1.0  0.53056  0.03056  0.68750  1.0000
  Pb  Pb47      1.0  0.03056  0.53056  0.68750  1.0000
  Pb  Pb48      1.0  0.53056  0.53056  0.68750  1.0000
  Pb  Pb49      1.0  0.96944  0.96944  0.75000  1.0000
  Pb  Pb50      1.0  0.46944  0.96944  0.75000  1.0000
  Pb  Pb51      1.0  0.96944  0.46944  0.75000  1.0000
  Pb  Pb52      1.0  0.46944  0.46944  0.75000  1.0000
  Pb  Pb53      1.0  0.03056  0.03056  0.81250  1.0000
  Pb  Pb54      1.0  0.53056  0.03056  0.81250  1.0000
  Pb  Pb55      1.0  0.03056  0.53056  0.81250  1.0000
  Pb  Pb56      1.0  0.53056  0.53056  0.81250  1.0000
  Pb  Pb57      1.0  0.96946  0.96946  0.87500  1.0000
  Pb  Pb58      1.0  0.46946  0.96946  0.87500  1.0000
  Pb  Pb59      1.0  0.96946  0.46946  0.87500  1.0000
  Pb  Pb60      1.0  0.46946  0.46946  0.87500  1.0000
  Pb  Pb61      1.0  0.01527  0.01527  0.93750  1.0000
  Pb  Pb62      1.0  0.51527  0.01527  0.93750  1.0000
  Pb  Pb63      1.0  0.01527  0.51527  0.93750  1.0000
  Pb  Pb64      1.0  0.51527  0.51527  0.93750  1.0000
  Ti  Ti1       1.0  0.25000  0.25000  0.03125  1.0000
  Ti  Ti2       1.0  0.75000  0.25000  0.03125  1.0000
  Ti  Ti3       1.0  0.25000  0.75000  0.03125  1.0000
  Ti  Ti4       1.0  0.75000  0.75000  0.03125  1.0000
  Ti  Ti5       1.0  0.25000  0.25000  0.09375  1.0000
  Ti  Ti6       1.0  0.75000  0.25000  0.09375  1.0000
  Ti  Ti7       1.0  0.25000  0.75000  0.09375  1.0000
  Ti  Ti8       1.0  0.75000  0.75000  0.09375  1.0000
  Ti  Ti9       1.0  0.25000  0.25000  0.15625  1.0000
  Ti  Ti10      1.0  0.75000  0.25000  0.15625  1.0000
  Ti  Ti11      1.0  0.25000  0.75000  0.15625  1.0000
  Ti  Ti12      1.0  0.75000  0.75000  0.15625  1.0000
  Ti  Ti13      1.0  0.25000  0.25000  0.21875  1.0000
  Ti  Ti14      1.0  0.75000  0.25000  0.21875  1.0000
  Ti  Ti15      1.0  0.25000  0.75000  0.21875  1.0000
  Ti  Ti16      1.0  0.75000  0.75000  0.21875  1.0000
  Ti  Ti17      1.0  0.25000  0.25000  0.28125  1.0000
  Ti  Ti18      1.0  0.75000  0.25000  0.28125  1.0000
  Ti  Ti19      1.0  0.25000  0.75000  0.28125  1.0000
  Ti  Ti20      1.0  0.75000  0.75000  0.28125  1.0000
  Ti  Ti21      1.0  0.25000  0.25000  0.34375  1.0000
  Ti  Ti22      1.0  0.75000  0.25000  0.34375  1.0000
  Ti  Ti23      1.0  0.25000  0.75000  0.34375  1.0000
  Ti  Ti24      1.0  0.75000  0.75000  0.34375  1.0000
  Ti  Ti25      1.0  0.25000  0.25000  0.40625  1.0000
  Ti  Ti26      1.0  0.75000  0.25000  0.40625  1.0000
  Ti  Ti27      1.0  0.25000  0.75000  0.40625  1.0000
  Ti  Ti28      1.0  0.75000  0.75000  0.40625  1.0000
  Ti  Ti29      1.0  0.25000  0.25000  0.46875  1.0000
  Ti  Ti30      1.0  0.75000  0.25000  0.46875  1.0000
  Ti  Ti31      1.0  0.25000  0.75000  0.46875  1.0000
  Ti  Ti32      1.0  0.75000  0.75000  0.46875  1.0000
  Ti  Ti33      1.0  0.25000  0.25000  0.53125  1.0000
  Ti  Ti34      1.0  0.75000  0.25000  0.53125  1.0000
  Ti  Ti35      1.0  0.25000  0.75000  0.53125  1.0000
  Ti  Ti36      1.0  0.75000  0.75000  0.53125  1.0000
  Ti  Ti37      1.0  0.25000  0.25000  0.59375  1.0000
  Ti  Ti38      1.0  0.75000  0.25000  0.59375  1.0000
  Ti  Ti39      1.0  0.25000  0.75000  0.59375  1.0000
  Ti  Ti40      1.0  0.75000  0.75000  0.59375  1.0000
  Ti  Ti41      1.0  0.25000  0.25000  0.65625  1.0000
  Ti  Ti42      1.0  0.75000  0.25000  0.65625  1.0000
  Ti  Ti43      1.0  0.25000  0.75000  0.65625  1.0000
  Ti  Ti44      1.0  0.75000  0.75000  0.65625  1.0000
  Ti  Ti45      1.0  0.25000  0.25000  0.71875  1.0000
  Ti  Ti46      1.0  0.75000  0.25000  0.71875  1.0000
  Ti  Ti47      1.0  0.25000  0.75000  0.71875  1.0000
  Ti  Ti48      1.0  0.75000  0.75000  0.71875  1.0000
  Ti  Ti49      1.0  0.25000  0.25000  0.78125  1.0000
  Ti  Ti50      1.0  0.75000  0.25000  0.78125  1.0000
  Ti  Ti51      1.0  0.25000  0.75000  0.78125  1.0000
  Ti  Ti52      1.0  0.75000  0.75000  0.78125  1.0000
  Ti  Ti53      1.0  0.25000  0.25000  0.84375  1.0000
  Ti  Ti54      1.0  0.75000  0.25000  0.84375  1.0000
  Ti  Ti55      1.0  0.25000  0.75000  0.84375  1.0000
  Ti  Ti56      1.0  0.75000  0.75000  0.84375  1.0000
  Ti  Ti57      1.0  0.25000  0.25000  0.90625  1.0000
  Ti  Ti58      1.0  0.75000  0.25000  0.90625  1.0000
  Ti  Ti59      1.0  0.25000  0.75000  0.90625  1.0000
  Ti  Ti60      1.0  0.75000  0.75000  0.90625  1.0000
  Ti  Ti61      1.0  0.25000  0.25000  0.96875  1.0000
  Ti  Ti62      1.0  0.75000  0.25000  0.96875  1.0000
  Ti  Ti63      1.0  0.25000  0.75000  0.96875  1.0000
  Ti  Ti64      1.0  0.75000  0.75000  0.96875  1.0000
  O   O1        1.0  0.27409  0.27409  0.00000  1.0000
  O   O2        1.0  0.72632  0.22632  0.00000  1.0000
  O   O3        1.0  0.22632  0.72632  0.00000  1.0000
  O   O4        1.0  0.77409  0.77409  0.00000  1.0000
  O   O5        1.0  0.20554  0.20554  0.06250  1.0000
  O   O6        1.0  0.75332  0.25332  0.06250  1.0000
  O   O7        1.0  0.25332  0.75332  0.06250  1.0000
  O   O8        1.0  0.70554  0.70554  0.06250  1.0000
  O   O9        1.0  0.31464  0.31464  0.12500  1.0000
  O   O10       1.0  0.76686  0.26686  0.12500  1.0000
  O   O11       1.0  0.26686  0.76686  0.12500  1.0000
  O   O12       1.0  0.81464  0.81464  0.12500  1.0000
  O   O13       1.0  0.18536  0.18536  0.18750  1.0000
  O   O14       1.0  0.73314  0.23314  0.18750  1.0000
  O   O15       1.0  0.23314  0.73314  0.18750  1.0000
  O   O16       1.0  0.68536  0.68536  0.18750  1.0000
  O   O17       1.0  0.31464  0.31464  0.25000  1.0000
  O   O18       1.0  0.76686  0.26686  0.25000  1.0000
  O   O19       1.0  0.26686  0.76686  0.25000  1.0000
  O   O20       1.0  0.81464  0.81464  0.25000  1.0000
  O   O21       1.0  0.18536  0.18536  0.31250  1.0000
  O   O22       1.0  0.73314  0.23314  0.31250  1.0000
  O   O23       1.0  0.23314  0.73314  0.31250  1.0000
  O   O24       1.0  0.68536  0.68536  0.31250  1.0000
  O   O25       1.0  0.31451  0.31451  0.37500  1.0000
  O   O26       1.0  0.76674  0.26674  0.37500  1.0000
  O   O27       1.0  0.26674  0.76674  0.37500  1.0000
  O   O28       1.0  0.81451  0.81451  0.37500  1.0000
  O   O29       1.0  0.20585  0.20585  0.43750  1.0000
  O   O30       1.0  0.75363  0.25363  0.43750  1.0000
  O   O31       1.0  0.25363  0.75363  0.43750  1.0000
  O   O32       1.0  0.70585  0.70585  0.43750  1.0000
  O   O33       1.0  0.27379  0.27379  0.50000  1.0000
  O   O34       1.0  0.72601  0.22601  0.50000  1.0000
  O   O35       1.0  0.22601  0.72601  0.50000  1.0000
  O   O36       1.0  0.77379  0.77379  0.50000  1.0000
  O   O37       1.0  0.24658  0.24658  0.56250  1.0000
  O   O38       1.0  0.79435  0.29435  0.56250  1.0000
  O   O39       1.0  0.29435  0.79435  0.56250  1.0000
  O   O40       1.0  0.74658  0.74658  0.56250  1.0000
  O   O41       1.0  0.23314  0.23314  0.62500  1.0000
  O   O42       1.0  0.68536  0.18536  0.62500  1.0000
  O   O43       1.0  0.18536  0.68536  0.62500  1.0000
  O   O44       1.0  0.73314  0.73314  0.62500  1.0000
  O   O45       1.0  0.26686  0.26686  0.68750  1.0000
  O   O46       1.0  0.81464  0.31464  0.68750  1.0000
  O   O47       1.0  0.31464  0.81464  0.68750  1.0000
  O   O48       1.0  0.76686  0.76686  0.68750  1.0000
  O   O49       1.0  0.23314  0.23314  0.75000  1.0000
  O   O50       1.0  0.68536  0.18536  0.75000  1.0000
  O   O51       1.0  0.18536  0.68536  0.75000  1.0000
  O   O52       1.0  0.73314  0.73314  0.75000  1.0000
  O   O53       1.0  0.26686  0.26686  0.81250  1.0000
  O   O54       1.0  0.81464  0.31464  0.81250  1.0000
  O   O55       1.0  0.31464  0.81464  0.81250  1.0000
  O   O56       1.0  0.76686  0.76686  0.81250  1.0000
  O   O57       1.0  0.23316  0.23316  0.87500  1.0000
  O   O58       1.0  0.68539  0.18539  0.87500  1.0000
  O   O59       1.0  0.18539  0.68539  0.87500  1.0000
  O   O60       1.0  0.73316  0.73316  0.87500  1.0000
  O   O61       1.0  0.24647  0.24647  0.93750  1.0000
  O   O62       1.0  0.79425  0.29425  0.93750  1.0000
  O   O63       1.0  0.29425  0.79425  0.93750  1.0000
  O   O64       1.0  0.74647  0.74647  0.93750  1.0000
  O   O65       1.0  0.00000  0.27389  0.02826  1.0000
  O   O66       1.0  0.50000  0.22611  0.03424  1.0000
  O   O67       1.0  0.00000  0.72611  0.03424  1.0000
  O   O68       1.0  0.50000  0.77389  0.02826  1.0000
  O   O69       1.0  0.00000  0.22611  0.09674  1.0000
  O   O70       1.0  0.50000  0.27389  0.09076  1.0000
  O   O71       1.0  0.00000  0.77389  0.09076  1.0000
  O   O72       1.0  0.50000  0.72611  0.09674  1.0000
  O   O73       1.0  0.00000  0.27389  0.15326  1.0000
  O   O74       1.0  0.50000  0.22611  0.15924  1.0000
  O   O75       1.0  0.00000  0.72611  0.15924  1.0000
  O   O76       1.0  0.50000  0.77389  0.15326  1.0000
  O   O77       1.0  0.00000  0.22611  0.22174  1.0000
  O   O78       1.0  0.50000  0.27389  0.21576  1.0000
  O   O79       1.0  0.00000  0.77389  0.21576  1.0000
  O   O80       1.0  0.50000  0.72611  0.22174  1.0000
  O   O81       1.0  0.00000  0.27389  0.27826  1.0000
  O   O82       1.0  0.50000  0.22611  0.28424  1.0000
  O   O83       1.0  0.00000  0.72611  0.28424  1.0000
  O   O84       1.0  0.50000  0.77389  0.27826  1.0000
  O   O85       1.0  0.00000  0.22611  0.34674  1.0000
  O   O86       1.0  0.50000  0.27389  0.34076  1.0000
  O   O87       1.0  0.00000  0.77389  0.34076  1.0000
  O   O88       1.0  0.50000  0.72611  0.34674  1.0000
  O   O89       1.0  0.00000  0.27389  0.40326  1.0000
  O   O90       1.0  0.50000  0.22611  0.40924  1.0000
  O   O91       1.0  0.00000  0.72611  0.40924  1.0000
  O   O92       1.0  0.50000  0.77389  0.40326  1.0000
  O   O93       1.0  0.00000  0.22611  0.47174  1.0000
  O   O94       1.0  0.50000  0.27389  0.46576  1.0000
  O   O95       1.0  0.00000  0.77389  0.46576  1.0000
  O   O96       1.0  0.50000  0.72611  0.47174  1.0000
  O   O97       1.0  0.00000  0.27389  0.52826  1.0000
  O   O98       1.0  0.50000  0.22611  0.53424  1.0000
  O   O99       1.0  0.00000  0.72611  0.53424  1.0000
  O   O100      1.0  0.50000  0.77389  0.52826  1.0000
  O   O101      1.0  0.00000  0.22611  0.59674  1.0000
  O   O102      1.0  0.50000  0.27389  0.59076  1.0000
  O   O103      1.0  0.00000  0.77389  0.59076  1.0000
  O   O104      1.0  0.50000  0.72611  0.59674  1.0000
  O   O105      1.0  0.00000  0.27389  0.65326  1.0000
  O   O106      1.0  0.50000  0.22611  0.65924  1.0000
  O   O107      1.0  0.00000  0.72611  0.65924  1.0000
  O   O108      1.0  0.50000  0.77389  0.65326  1.0000
  O   O109      1.0  0.00000  0.22611  0.72174  1.0000
  O   O110      1.0  0.50000  0.27389  0.71576  1.0000
  O   O111      1.0  0.00000  0.77389  0.71576  1.0000
  O   O112      1.0  0.50000  0.72611  0.72174  1.0000
  O   O113      1.0  0.00000  0.27389  0.77826  1.0000
  O   O114      1.0  0.50000  0.22611  0.78424  1.0000
  O   O115      1.0  0.00000  0.72611  0.78424  1.0000
  O   O116      1.0  0.50000  0.77389  0.77826  1.0000
  O   O117      1.0  0.00000  0.22611  0.84674  1.0000
  O   O118      1.0  0.50000  0.27389  0.84076  1.0000
  O   O119      1.0  0.00000  0.77389  0.84076  1.0000
  O   O120      1.0  0.50000  0.72611  0.84674  1.0000
  O   O121      1.0  0.00000  0.27389  0.90326  1.0000
  O   O122      1.0  0.50000  0.22611  0.90924  1.0000
  O   O123      1.0  0.00000  0.72611  0.90924  1.0000
  O   O124      1.0  0.50000  0.77389  0.90326  1.0000
  O   O125      1.0  0.00000  0.22611  0.97174  1.0000
  O   O126      1.0  0.50000  0.27389  0.96576  1.0000
  O   O127      1.0  0.00000  0.77389  0.96576  1.0000
  O   O128      1.0  0.50000  0.72611  0.97174  1.0000
  O   O129      1.0  0.22611  0.00000  0.02826  1.0000
  O   O130      1.0  0.77389  0.00000  0.03424  1.0000
  O   O131      1.0  0.27389  0.50000  0.03424  1.0000
  O   O132      1.0  0.72611  0.50000  0.02826  1.0000
  O   O133      1.0  0.27389  0.00000  0.09674  1.0000
  O   O134      1.0  0.72611  0.00000  0.09076  1.0000
  O   O135      1.0  0.22611  0.50000  0.09076  1.0000
  O   O136      1.0  0.77389  0.50000  0.09674  1.0000
  O   O137      1.0  0.22611  0.00000  0.15326  1.0000
  O   O138      1.0  0.77389  0.00000  0.15924  1.0000
  O   O139      1.0  0.27389  0.50000  0.15924  1.0000
  O   O140      1.0  0.72611  0.50000  0.15326  1.0000
  O   O141      1.0  0.27389  0.00000  0.22174  1.0000
  O   O142      1.0  0.72611  0.00000  0.21576  1.0000
  O   O143      1.0  0.22611  0.50000  0.21576  1.0000
  O   O144      1.0  0.77389  0.50000  0.22174  1.0000
  O   O145      1.0  0.22611  0.00000  0.27826  1.0000
  O   O146      1.0  0.77389  0.00000  0.28424  1.0000
  O   O147      1.0  0.27389  0.50000  0.28424  1.0000
  O   O148      1.0  0.72611  0.50000  0.27826  1.0000
  O   O149      1.0  0.27389  0.00000  0.34674  1.0000
  O   O150      1.0  0.72611  0.00000  0.34076  1.0000
  O   O151      1.0  0.22611  0.50000  0.34076  1.0000
  O   O152      1.0  0.77389  0.50000  0.34674  1.0000
  O   O153      1.0  0.22611  0.00000  0.40326  1.0000
  O   O154      1.0  0.77389  0.00000  0.40924  1.0000
  O   O155      1.0  0.27389  0.50000  0.40924  1.0000
  O   O156      1.0  0.72611  0.50000  0.40326  1.0000
  O   O157      1.0  0.27389  0.00000  0.47174  1.0000
  O   O158      1.0  0.72611  0.00000  0.46576  1.0000
  O   O159      1.0  0.22611  0.50000  0.46576  1.0000
  O   O160      1.0  0.77389  0.50000  0.47174  1.0000
  O   O161      1.0  0.22611  0.00000  0.52826  1.0000
  O   O162      1.0  0.77389  0.00000  0.53424  1.0000
  O   O163      1.0  0.27389  0.50000  0.53424  1.0000
  O   O164      1.0  0.72611  0.50000  0.52826  1.0000
  O   O165      1.0  0.27389  0.00000  0.59674  1.0000
  O   O166      1.0  0.72611  0.00000  0.59076  1.0000
  O   O167      1.0  0.22611  0.50000  0.59076  1.0000
  O   O168      1.0  0.77389  0.50000  0.59674  1.0000
  O   O169      1.0  0.22611  0.00000  0.65326  1.0000
  O   O170      1.0  0.77389  0.00000  0.65924  1.0000
  O   O171      1.0  0.27389  0.50000  0.65924  1.0000
  O   O172      1.0  0.72611  0.50000  0.65326  1.0000
  O   O173      1.0  0.27389  0.00000  0.72174  1.0000
  O   O174      1.0  0.72611  0.00000  0.71576  1.0000
  O   O175      1.0  0.22611  0.50000  0.71576  1.0000
  O   O176      1.0  0.77389  0.50000  0.72174  1.0000
  O   O177      1.0  0.22611  0.00000  0.77826  1.0000
  O   O178      1.0  0.77389  0.00000  0.78424  1.0000
  O   O179      1.0  0.27389  0.50000  0.78424  1.0000
  O   O180      1.0  0.72611  0.50000  0.77826  1.0000
  O   O181      1.0  0.27389  0.00000  0.84674  1.0000
  O   O182      1.0  0.72611  0.00000  0.84076  1.0000
  O   O183      1.0  0.22611  0.50000  0.84076  1.0000
  O   O184      1.0  0.77389  0.50000  0.84674  1.0000
  O   O185      1.0  0.22611  0.00000  0.90326  1.0000
  O   O186      1.0  0.77389  0.00000  0.90924  1.0000
  O   O187      1.0  0.27389  0.50000  0.90924  1.0000
  O   O188      1.0  0.72611  0.50000  0.90326  1.0000
  O   O189      1.0  0.27389  0.00000  0.97174  1.0000
  O   O190      1.0  0.72611  0.00000  0.96576  1.0000
  O   O191      1.0  0.22611  0.50000  0.96576  1.0000
  O   O192      1.0  0.77389  0.50000  0.97174  1.0000
