data_image0
_chemical_formula_structural       Y8Al8O24
_chemical_formula_sum              "Y8 Al8 O24"
_cell_length_a       7.345347481242511
_cell_length_b       7.345347481242511
_cell_length_c       7.345347481242511
_cell_angle_alpha    90.0
_cell_angle_beta     90.0
_cell_angle_gamma    90.0

_space_group_name_H-M_alt    "P 1"
_space_group_IT_number       1

loop_
  _space_group_symop_operation_xyz
  'x, y, z'

loop_
  _atom_site_type_symbol
  _atom_site_label
  _atom_site_symmetry_multiplicity
  _atom_site_fract_x
  _atom_site_fract_y
  _atom_site_fract_z
  _atom_site_occupancy
  Y   Y1        1.0  0.0  0.0  0.0  1.0000
  Y   Y2        1.0  0.5  0.0  0.0  1.0000
  Y   Y3        1.0  0.0  0.5  0.0  1.0000
  Y   Y4        1.0  0.5  0.5  0.0  1.0000
  Y   Y5        1.0  0.0  0.0  0.5  1.0000
  Y   Y6        1.0  0.5  0.0  0.5  1.0000
  Y   Y7        1.0  0.0  0.5  0.5  1.0000
  Y   Y8        1.0  0.5  0.5  0.5  1.0000
  Al  Al1       1.0  0.25  0.25  0.25  1.0000
  Al  Al2       1.0  0.7499999999999999  0.25  0.25  1.0000
  Al  Al3       1.0  0.25  0.7499999999999999  0.25  1.0000
  Al  Al4       1.0  0.7499999999999999  0.7499999999999999  0.25  1.0000
  Al  Al5       1.0  0.25  0.25  0.7499999999999999  1.0000
  Al  Al6       1.0  0.7499999999999999  0.25  0.7499999999999999  1.0000
  Al  Al7       1.0  0.25  0.7499999999999999  0.7499999999999999  1.0000
  Al  Al8       1.0  0.7499999999999999  0.7499999999999999  0.7499999999999999  1.0000
  O   O1        1.0  0.25  0.25  0.0  1.0000
  O   O2        1.0  0.7499999999999999  0.25  0.0  1.0000
  O   O3        1.0  0.25  0.7499999999999999  0.0  1.0000
  O   O4        1.0  0.7499999999999999  0.7499999999999999  0.0  1.0000
  O   O5        1.0  0.25  0.25  0.5  1.0000
  O   O6        1.0  0.7499999999999999  0.25  0.5  1.0000
  O   O7        1.0  0.25  0.7499999999999999  0.5  1.0000
  O   O8        1.0  0.7499999999999999  0.7499999999999999  0.5  1.0000
  O   O9        1.0  0.0  0.25  0.25  1.0000
  O   O10       1.0  0.5  0.25  0.25  1.0000
  O   O11       1.0  0.0  0.7499999999999999  0.25  1.0000
  O   O12       1.0  0.5  0.7499999999999999  0.25  1.0000
  O   O13       1.0  0.0  0.25  0.7499999999999999  1.0000
  O   O14       1.0  0.5  0.25  0.7499999999999999  1.0000
  O   O15       1.0  0.0  0.7499999999999999  0.7499999999999999  1.0000
  O   O16       1.0  0.5  0.7499999999999999  0.7499999999999999  1.0000
  O   O17       1.0  0.25  0.0  0.25  1.0000
  O   O18       1.0  0.7499999999999999  0.0  0.25  1.0000
  O   O19       1.0  0.25  0.5  0.25  1.0000
  O   O20       1.0  0.7499999999999999  0.5  0.25  1.0000
  O   O21       1.0  0.25  0.0  0.7499999999999999  1.0000
  O   O22       1.0  0.7499999999999999  0.0  0.7499999999999999  1.0000
  O   O23       1.0  0.25  0.5  0.7499999999999999  1.0000
  O   O24       1.0  0.7499999999999999  0.5  0.7499999999999999  1.0000
